10|10000|Public
40|$|The {{boundary}} layer calculation program (BLAY) {{is a program}} code which accurately analyzes the three-dimensional {{boundary layer}} of a wing with an undefined plane. In comparison with other preexisting programs, the BLAY {{is characterized by the}} following: (1) the time required for computation is shorter than any other; (2) the program is adaptable to a parallel processing computer; and (3) the program is associated with a secondary accuracy in the z-direction. As a <b>boundary</b> <b>layer</b> <b>modification</b> to transonic nonviscous flow analysis programs, it is used to adjust viscous and nonviscous interference problems repeatedly. Its efficiency {{is an important factor in}} cost reduction in aircraft designing...|$|E
40|$|Abstract. In this paper, {{we present}} {{a review of the}} recent results {{obtained}} in the field of <b>boundary</b> <b>layer</b> <b>modification</b> using large-scale ElectroHydroDynamic (EHD) flows. EHD flows are a characteristic of Electrostatic Precipitators (ESPs) and the study of their interac-tions with the turbulent boundary layer may lead to optimization of ESPs from the viewpoint of drag reduction and particle collection efficiency. However, this study has a general rele-vance since EHD flows may be exploited in a number of industrial applications to modulate turbulence. In this work, we describe the principles of turbulence structure at the wall and then present results obtained for turbulent boundary layer forced by different configura-tions of EHD flows. Finally, we describe possible improvements and the optimization of the method. ...|$|E
40|$|Turbulence grids {{are widely}} used in wind tunnels to produce {{representative}} turbulence levels when testing aerodynamic phenomena around models. Although {{the purpose of the}} grid is to introduce a desired turbulence level in the freestream flow, the wall boundary layers of the tunnel are subjected to modification due to the presence of such grids. This could have major implications to the flow around the models to be tested and hence {{there is a need to}} further understand this interaction. The study described in this paper examines wind tunnel wall <b>boundary</b> <b>layer</b> <b>modification</b> by turbulence grids of different mesh sizes and porosities to understand the effect of these parameters on such interaction. Experimental results are presented in the form of pressure loss coefficients, boundary layer velocity profiles and the statistics of turbulence modification...|$|E
50|$|On 27 April 1960, Raspet was {{involved}} in a plane crash during a demonstration of a Piper Cub with <b>boundary</b> <b>layer</b> <b>modifications</b> at Starkville, Mississippi's Bryan Field Airport. He died at the scene and was survived by his wife and three children.|$|R
40|$|Thermochemical {{processes}} such as dissociation and vibrational excitation {{can have}} a substantial impact on the gas dynamics of planetary entry. A critical question that confronts vehicle designers {{is the role of}} such molecular effects on transition and turbulence. In high stagnation enthalpy flows, thermochemical processes have been observed to affect transition to turbulence in <b>boundary</b> <b>layers</b> through <b>modifications</b> to the mean flow profile as well as to flow stability [1 - 3]...|$|R
40|$|We {{investigate}} the flow over shallow cavities as a representa tive configuration for modelling small surface irregularities in wall-bounded shear flows. Due to t he globally stable {{nature of the}} flow, we perform a frequency response analysis, which shows a signifi cant potential for the amplification of disturbance kinetic energy by harmonic forcing within a cer tain frequency band. Shorter and more shallow cavities exhibit less amplified responses, while en ergy from the base flow can be extracted predominantly from forcing that impacts the cavity head-on. A structural sensitivity analysis, combined with a componentwise decomposition of the sensiti vity tensor, reveals the regions of the flow that act most effectively as amplifiers. We find that the fl ow inside the cavity plays a negligible role, whereas <b>boundary</b> <b>layer</b> <b>modifications</b> imme diately upstream and downstream of the cavity edges contribute significantly to the frequency r esponse. The same regions constitute preferred locations for implementing active or passive con trol strategies to manipulate the frequency response of the flow...|$|R
40|$|A {{case study}} of the Andreas et al. (1984) data on {{atmospheric}} <b>boundary</b> <b>layer</b> <b>modification</b> in the marginal ice zone is made. The model is a two-dimensional, multilevel, linear model with turbulence, lateral and vertical advection, and radiation. Good agreement between observed and modeled temperature cross sections is obtained. In contrast to the hypothesis of Andreas et al., the air flow {{is found to be}} stable to secondary circulations. Adiabatic lifting and, at long fetches, cloud top longwave cooling, not an air-to-surface heat flux, dominate the cooling of the boundary layer. The accumulation with fetch over the ice of changes in the surface wind field is shown to have a large effect on estimates of the surface wind stress. It is speculated that the Andreas et al. estimates of the drag coefficient over the compact sea ice are too high...|$|E
40|$|International audienceVortex {{generators}} (VGs) are {{a common}} way to perform flow control thought their actual effect on a generic flow is mainly unknown. In order to find determinant physical parameters {{which can be used}} to optimize dimensions, position and actuation of vortex generators we have studied the effect of solid cylinder vortex generators on a flat plate boundary layer. Using two-component PIV measurement and 3 D reconstruction we show the existence of a boundary layer modulation due to counter rotating streamwise vortices. By analyzing the 3 D velocity field we extract the non linear part of this modulation (and especially the quadratic non linear zeroth mode) which is responsible for the mean flow modification. This parametric study gives the growth rate of non linear perturbations and the properties of the spanwise modulation depending on VGs spacing and Reynolds number. These are determinant physical parameters of the <b>boundary</b> <b>layer</b> <b>modification</b> by the VGs {{that can be used to}} their efficient design and control. We finally compare these results to the average modification of a separated flow over a smoothly contoured ramp by such cylinder vortex generators...|$|E
40|$|The {{application}} of plasma devices for controlling and enhancing aerodynamic phenomena encountered in atmospheric flight vehicles is actively {{being investigated by}} many research groups throughout the world. These devices operate using the generation of plasma within the flowfield, generally through an electrical discharge or injection of an electron beam, and then using either {{the effects of the}} energy deposition itself or through {{application of}} electrostatic or Lorentz forces to modify the aerodynamic phenomena of interest. Plasma devices are being explored for applications ranging from drag reduction and steering control to <b>boundary</b> <b>layer</b> <b>modification</b> to ignition and combustion system enhancement. Note that since the plasma generation generally operates using electrically controlled phenomena, the frequency response of a control system can be very fast relative to hydraulic and electromechanical systems, so new control strategies can be explored. In the present notes, a variety of plasma flow control devices are described together with a discussion of their potential system-level impacts. High level results are also included from a study conducted by the Johns Hopkins University Applied Physics Laboratory (JHU/APL) titled “Advanced Physics System Study for Future Aerospace Vehicles, ” which was performed under the sponsorship of the U...|$|E
40|$|Abstract — Hot-w ire {{measurements}} {{have been}} made in a turbulent <b>boundary</b> <b>layer</b> subjected to a short roughness strip and concentrated suction with the view to examine their combined effect on the near-wall <b>boundary</b> <b>layer</b> structure. The suction is applied through a porous wall strip for a range of suction rate. The results indicate that, the combination of suction and roughness strip alters the pseudo-equilibrium of the <b>boundary</b> <b>layer</b> through the <b>modification</b> of the length scale of the turbulence structure in a phenomenological manner, suggesting that there is a possibility of them acting independently on the different mechanism of the <b>boundary</b> <b>layer.</b> While the application of suction weakened the structure, it is reactivated {{in the presence of the}} roughness element...|$|R
40|$|In simple models, the nocturnal <b>boundary</b> <b>layer</b> is {{generally}} formulated {{in terms of}} eddy diffusivities, which are functions of height above ground and <b>boundary</b> <b>layer</b> depth. This approach is modified in this study to include ‘‘z-less’’ turbulence, which is formulated {{in terms of a}} stability-dependent mixing length and a Prandtl number, which are not tied to the existence of a <b>boundary</b> <b>layer</b> depth. These <b>modifications</b> have been guided by analysis of nocturnal <b>boundary</b> <b>layer</b> data from the Cooperative Atmospheric-Surface Exchange Study– 1999. The modeled turbulence sometimes exhibits an upside-down structure with turbulence generated by shear associated with nocturnal flow acceleration at higher levels. The modified model produces a more realistic smoother wind speed maximum (nocturnal jet) and generates layers of turbulence above the <b>boundary</b> <b>layer.</b> Remaining shortcomings of the new model are discussed...|$|R
40|$|The {{study of}} the damage of {{aeronautical}} materials {{is important because it}} may change the microscopic surface structure profiles. The modification of geometrical surface properties can cause small instabilities and then a displacement of the <b>boundary</b> <b>layer.</b> One of the irregularities we can often find is surface roughness. Due to an increase of roughness and other effects, there may be extra momentum losses in the <b>boundary</b> <b>layer</b> and a <b>modification</b> in the parasite drag. In this paper we present a speckle method for measuring the surface roughness on an actual unmanned aircraft wing. The results show an inhomogeneous roughness distribution on the wing, as expected according to the anisotropic influence of the winds over the entire wing geometry. A calculation of the uncertainty of the technique is given...|$|R
40|$|Large eddy {{simulations}} (LESs) {{are performed}} {{for the area}} of the Caribbean island Barbados to investigate island effects on <b>boundary</b> <b>layer</b> <b>modification,</b> cloud generation and vertical mixing of aerosols. Due to the presence of a topographically structured island surface in the domain center, the model setup has to be designed with open lateral boundaries. In order to generate inflow turbulence consistent with the upstream marine boundary layer forcing, we use the cell perturbation method based on finite amplitude potential temperature perturbations. In this work, this method is for the first time tested and validated for moist boundary layer simulations with open lateral boundary conditions. Observational data obtained from the SALTRACE field campaign is used for both model initialization and a comparison with Doppler wind and Raman lidar data. Several numerical sensitivity tests are carried out to demonstrate the problems related to “gray zone modeling” when using coarser spatial grid spacings beyond the inertial subrange of three-dimensional turbulence or when the turbulent marine boundary layer flow is replaced by laminar winds. Especially cloud properties in the downwind area west of Barbados are markedly affected in these kinds of simulations. Results of an additional simulation with a strong trade-wind inversion reveal its effect on cloud layer depth and location. Saharan dust layers that reach Barbados via long-range transport over the North Atlantic are included as passive tracers in the model. Effects of layer thinning, subsidence and turbulent downward transport near the layer bottom at z[*]≈[*] 1800 m become apparent. The exact position of these layers and strength of downward mixing is found to be mainly controlled atmospheric stability (especially inversion strength) and wind shear. Comparisons of LES model output with wind lidar data show similarities in the downwind vertical wind structure. Additionally, the model results accurately reproduce the development of the daytime convective boundary layer measured by the Raman lidar...|$|E
40|$|The flow {{around a}} vehicle, for example, {{results in a}} large {{resistance}} and can generate a complex swirl pattern behind {{the body of the}} vehicle, which can lead to strong alternating lateral forces. There is therefore a clear need for more fundamental understanding of the instability of this so-called wake region, which arises behind bluff bodies. In this thesis, the focus lies on the relation between the wake inlet conditions and the wake characteristics of a bluff body. This relation is studied experimentally, in the Reynolds number range 2. 9 E 3 - 5. 5 E 4.   The experiments are carried out in a specially designed test-section, which comprises a rectangular forebody with a smooth leading edge and a blunt trailing edge. The perforated top and bottom surface of this body allow for <b>boundary</b> <b>layer</b> <b>modification</b> by means of wall suction.   Hot-wire anemometry and pressure measurements show that wall suction, in the order of 1 % of the free-stream velocity, leads to a significant change of the boundary-layer properties; the boundary-layer thickness decreases and the wall-shear stress increases.   Laminar boundary layers take the form of the asymptotic suction boundary layer and turbulent boundary layers are shown to relaminarize, when subject to wall suction above a critical value. A modification of the boundary layer leads to an increase of the vortex shedding frequency and a decrease of the base pressure. Empirical relations for the Strouhal number and the base pressure coefficient are derived. The boundary layer conditions are included in these relations and as result, they hold for both laminar and turbulent boundary layers. Two-dimensional velocity fields, obtained by means of particle image velocimetry, reveal the effect of boundary-layer modification on the near-wake topology. By dividing the velocity component into (i) mean, (ii) periodic and (iii) random contributions, it can be shown that the confluence point moves upstream, the curvature of streamlines enclosing the trailing edge increases, and the Reynolds normal and shear stresses increase.   The experimental study is continued by introducing interference elements in the wake. The qualitative effect of a splitter plate on the wake characteristics is not altered by boundary-layer modification, but the critical splitter plate length and gap width for which the vortex shedding frequency is suppressed do change. A sensitivity map is obtained experimentally by placing a control rod at various locations in the wake. Considering all limitations of such an experiment, it was found to be in good agreement with the result of a linear stability analysis carried out on the measured mean velocity field.   QC 20160316 </p...|$|E
40|$|The wake {{behind a}} {{rectangular}} forebody with variable inlet conditions is investigated. The perforated {{surface of the}} two-dimensional rectangular forebody, with a smooth leading edge and a blunt trailing edge, allows for <b>boundary</b> <b>layer</b> <b>modification</b> by means of wall suction. The test section, of which the rectangular forebody is the main part, is experimentally evaluated {{with a series of}} hot-wire and Prandtl tube measurements in the boundary layer and the wake. For a suction coefficient of Γ> 9, corresponding to 0. 9 % suction of the free stream velocity, the asymptotic suction boundary layer (ASBL) is obtained at the trailing edge of the forebody for laminar boundary layers (Rex= 1. 6 × 105 − 3. 8 × 105). The key feature of the ASBL, a spatially invariant boundary thickness which can be modified independent of the Reynolds number, is used to perform a unique parametrical study. Turbulent boundary layers (Rex= 4. 5 × 105 − 3. 0 × 106) subject to wall suction are also investigated. For a critical suction coefficient Γcrit, which depends on Rex, the boundary layer relaminarizes. Strong evidence is found to support the hypothesis that turbulent boundary layers will ultimately attain the ASBL as well, provided that the wall suction is strong enough. The effect of the modulated laminar and turbulent boundary layers on the wake characteristics is studied. The shape of the mean wake velocity profile, scaled with the velocity deficit U 0 and the wake half width ∆y 1 / 2, is found tobe independent of x/h, for x/h> 6 and Reh > 6. 7 × 103. The wake width is shown to scale with the effective thickness of the body h+ 2 δ 1, where the ratio is expected to vary with the downstream location. A decrease of the displacement thickness leads to a decrease of the base pressure, with Cp,b = − 0. 36 in the ASBL limit. The Strouhal number based on the effective thickness becomes Sth+ 2 δ 1 ≈ 0. 29 in the ASBL limit and independent of the plate thickness (h) Reynolds number, in the range Reh = 2. 9 × 103 − 6. 7 × 103. For the turbulent boundary Sth+ 2 δ 1 is found to be 25 % lower, which shows that the wake characteristics depend {{on the state of the}} boundary layer at the trailing edge. The total drag is found to be reduced by as much as 30 % for Reh = 2. 7 × 104 when a wall normal velocity of only 3. 5 % of the free stream velocity is applied. Wall suction successively reduces the total drag with increasing wall suction, at least in the Reynolds number rangeReh = 8. 0 × 103 − 5. 5 × 104. QC 20140312 </p...|$|E
40|$|Urban land–atmosphere {{interactions}} can {{be captured}} by numerical modeling framework with coupled land surface and atmospheric processes, while the model performance depends largely on accurate input parameters. In this study, we use an advanced stochastic approach to quantify parameter uncertainty and model sensitivity of a coupled numerical framework for urban land–atmosphere interactions. It is found {{that the development of}} urban <b>boundary</b> <b>layer</b> is highly sensitive to surface characteristics of built terrains. Changes of both urban land use and geometry impose significant impact on the overlying urban <b>boundary</b> <b>layer</b> dynamics through <b>modification</b> on bottom boundary conditions, i. e., by altering surface energy partitioning and surface aerodynamic resistance, respectively. Hydrothermal properties of conventional and green roofs have different impacts on atmospheric dynamics due to different surface energy partitioning mechanisms. Urban geometry (represented by the canyon aspect ratio), however, has a significant nonlinear impact on <b>boundary</b> <b>layer</b> structure and temperature. Besides, managing rooftop roughness provides an alternative option to change the <b>boundary</b> <b>layer</b> thermal state through modification of the vertical turbulent transport. The sensitivity analysis deepens our insight into the fundamental physics of urban land–atmosphere interactions and provides useful guidance for urban planning under challenges of changing climate and continuous global urbanization...|$|R
40|$|We have {{developed}} a suite of benchmarks to facilitate the comparison of numerical models for the dynamics and thermal structure of subduction zones. The benchmark cases {{are based on a}} thermomechanical approach in which the slab is prescribed kinematically and the wedge flow is computed dynamically. We propose various cases to investigate the influence of boundary conditions and rheology on wedge flow and resulting thermal structure. A comparison between the codes suggest that accurate modeling of the thermal field requires a good implementation of the velocity discontinuity along the seismogenic zone and high resolution in the thermal <b>boundary</b> <b>layers.</b> A minor <b>modification</b> to the boundary conditions of the wedge flow is also necessary to avoid a pressure singularity that exists in analytical solutions of the cornerflow model. © 2008 Elsevier B. V. All rights reserved...|$|R
40|$|The time-splitting {{explicit}} numerical {{method of}} MacCormack {{is applied to}} separated turbulent <b>boundary</b> <b>layer</b> flow problems. <b>Modifications</b> of this basic method are developed to counter difficulties associated with complicated geometry and severe numerical resolution requirements of turbulence model equations. The accuracy of solutions is investigated by comparison with exact solutions for several simple cases. Procedures are developed for modifying the basic method to improve the accuracy. Numerical solutions of high-Reynolds-number separated flows over an airfoil and shock-separated flows over a flat plate are obtained. A simple mixing length model of turbulence {{is used for the}} transonic flow past an airfoil. A nonorthogonal mesh of arbitrary configuration facilitates the description of the flow field. For the simpler geometry associated with the flat plate, a rectangular mesh is used, and solutions are obtained based on a two-equation differential model of turbulence...|$|R
40|$|Concurrent {{measurements}} of velocity, water depth, sub-surface pore-pressure and suspended sediment concentration (SSC) {{were obtained from}} the swash-zone o f a macrotidal, dissipaiive (tanP = 0. 014), fine to medium grained (dso^ 0. 24 mm) beach at Perranporth, Cornwall, UK, in low (H^ = 0. 8 m) to high (Hj « 2. 2 m) energy conditions. Velocity, pressure and SSC were measured using electromagnetic current meters, pressure transducers and a four-level array of miniature optical backscaner sensors respectively. Results show an infragravity dominated wave field in the swashzone in both high and low energy conditions. In low energy conditions, the ratio between low (f 0. 05 Hz) frequency variance increased from 0. 6 to 2. 3 for both cross-shore velocity and surface elevation, and SSC at z = 1 cm increased by a factor of about 5, between just shoreward of the breakpoint (h/hb = 0. 6) and the swash-zone (h/hb = 0. 2). Swash-zone suspended sediment fluxes at z = 5 to 6 cm increased by a factor of about 2 from low to high energy conditions. Low frequency cross-shore velocity skewness values for low and high energy conditions were 0. 04 and - 0. 81 respectively, suggesting an important contribution to offshore transport in high energy conditions, from large, low frequency backwashes manifest in the velocity time-series as low frequency negative skewness. Using 3 D velocities from a similar experiment at Muriwai, New Zealand, it is found that TKE/velocity ratios in the uprush were about 1. 7 limes larger than in the backwash, suggesting greater turbulence in the uprush. Turbulence and rapid flow reversal are important onshore transport mechanisms, manifest as high frequency negative asymmetry in the velocity time-series. Values for high frequency negative asymmetry at Perranporth were 1. 8 times larger in low than in high energy conditions. The influence of inexflltration is investigated using velocity and sub-surface pore-pressure measurements, and a modified Shields parameter, which includes terms to account for the competing effects of stabilisation-destabilisation and <b>boundary</b> <b>layer</b> <b>modification.</b> It is found that there is dominance of stabilisation-destabilisation, resulting in a 4. 5 % increase in backwash transport and a 10. 5 % decrease in uprush transport, integrated over a swash cycle. Sensitivity tests show a reversal in this dominance if the median grain size is increased above about 0. 55 mm, suggesting the transport influence is onshore on coarser grained beaches and offshore on finer grained beaches. Calculations show that hydraulic jumps due to uprush-backwash interaction were about 2. 1 times as likely to occur during high than during low energy conditions. Visual observations suggest that more sediment is advected offshore from these jumps in high energy conditions. An antidune ripple field, which enhances transport through increased bed roughness, may also form beneath hydraulic jumps, but this is shown to influence the total dimensionless transport over a 17 -min. time-series by less than 5 %. Overall results suggest that swash-zone erosion occurs more readily on relatively fine-grained beaches in storms, and accretion occurs more readily on relatively coarse-grained beaches in calm conditions, which is consistent with observations in nature. Large infragravity frequency backwashes manifest as negative infragravity skewness appear to be a key factor in linking enhanced offshore transport in the swash-zone with high energy conditions...|$|E
40|$|A {{new model}} for the <b>boundary</b> <b>layer</b> {{development}} and associated skin friction coefficients and shear stress within the swash zone is presented. The model is developed within a Lagrangian reference frame, following fluid trajectories, and {{can be applied to}} both laminar flow and smooth turbulent flow. The model is based on the momentum integral approach for steady, flat-plate <b>boundary</b> <b>layers,</b> with appropriate <b>modifications</b> to account for the unsteady flow regime and flow history. The model results are consistent with previous measurements of bed shear stress and skin friction coefficients within the swash zone. These indicate strong temporal and spatial variation throughout the swash cycle, and a clear distinction between the uprush and backwash phase. This variation has been previously attributed the unsteady flow regime and flow history effects, both of which are accounted for in the new model. Fluid particle trajectories and velocity are computed using the non-linear shallow water wave equations and the <b>boundary</b> <b>layer</b> growth across the entire swash zone is estimated. Predictions of the bed shear stress and skin friction coefficients agree reasonably well with direct bed shear stress measurements reported by Barnes et al. (Barnes, M. P., O 2 ̆ 7 Donaghue, T., Alsina, J. M., Baldock, T. E., 2009. Direct bed shear stress measurements in bore-driven swash. Coastal Engineering 56 (8), 853 - 867) and, for a given flow velocity, give stresses which are consistent with the bias toward uprush sediment transport which has consistently been observed in measurements. The data and modelling suggest that the backwash <b>boundary</b> <b>layer</b> is initially laminar, which results in the late development of significant bed shear during the backwash, with a transition to a turbulent <b>boundary</b> <b>layer</b> later in the backwash. A new conceptual {{model for the}} <b>boundary</b> <b>layer</b> structure at {{the leading edge of the}} swash is proposed, which accounts for both the no-slip condition at the bed and the moving wet-dry interface. However, further development of the Lagrangian <b>Boundary</b> <b>Layer</b> Model is required in order to include bore-generated turbulence and to account for variable roughness and mobile beds. (C) 2009 Elsevier B. V. All rights reserved...|$|R
40|$|Compact mask models {{provide an}} {{alternative}} to speed up rigorous mask diffraction computation based on electromagnetic field (EMF) modeling. The high time expense of the rigorous mask models in the simulation process challenges the exploration of innovative modeling techniques to compromise accuracy and speed in the computation of the diffracted field and vectorial imaging in optical lithographic systems. The Artificial Neural Network (ANN) approach is presented as {{an alternative to}} retrieve the spectrum of the mask layout in an accurate yet efficient way. The validity of the ANN for different illuminations, feature sizes, pitches and shapes is investigated. The evaluation of the performance of this approach is performed by a process windows analysis, comparison of the spectra, best focus and critical dimension (CD) through pitch. The application of various layouts demonstrated that the ANN can also be trained with different patterns to reproduce various effects such as: shift of the line position, different linewidths and line ends. Comparisons of the ANN approach with other compact models such as <b>boundary</b> <b>layer</b> model, pulses <b>modification,</b> spectrum correction and pupil filtering techniques are presented...|$|R