986|260|Public
25|$|It is {{not always}} {{possible}} to eliminate ion suppression by sample preparation and/or chromatographic resolution. In such cases {{it may be possible}} to compensate for the effects of ion suppression on accuracy and precision (although not for <b>analytical</b> <b>sensitivity)</b> by adopting complex calibration strategies.|$|E
2500|$|Ion {{suppression}} in LC-MS and LC-MS/MS {{refers to}} reduced detector response, or [...] as a manifested effect of competition for ionisation efficiency in the ionisation source, between the analyte(s) {{of interest and}} other endogenous or exogenous (e.g. plasticisers extracted from plastic tubes, mobile phase additives) species which have not {{been removed from the}} sample matrix during sample preparation. Ion suppression is not strictly a problem unless interfering compounds elute {{at the same time as}} the analyte of interest. In cases where ion suppressing species do co-elute with an analyte, the effects on the important analytical parameters including [...] precision, accuracy and limit of detection (<b>analytical</b> <b>sensitivity)</b> can be extensive, severely limiting the validity of an assay's results.|$|E
50|$|It is {{not always}} {{possible}} to eliminate ion suppression by sample preparation and/or chromatographic resolution. In such cases {{it may be possible}} to compensate for the effects of ion suppression on accuracy and precision (although not for <b>analytical</b> <b>sensitivity)</b> by adopting complex calibration strategies.|$|E
40|$|A {{modified}} MODFLOW {{code was}} developed to calculate the <b>analytical</b> <b>sensitivities</b> of both the field parameters and the operational parameters using the automatic differentiation system ADIFOR. The <b>analytical</b> <b>sensitivities</b> were then used as input parameters for PEST to calculate estimates of the uncertainties. In addition, the manuscript provides comparison between the <b>analytical</b> <b>sensitivities</b> and numerical estimates of the sensitivities as calculated by using PSET. Analytical calculations of the sensitivities {{are known to be}} more accurate than numerical estimates, (usually) takes less time to compute, and the results of analytical computations are independent of numerical assumptions such as the magnitude of the perturbation. Furthermore, using <b>analytical</b> <b>sensitivities</b> yields more accurate uncertainties than using the numerical estimates of the sensitivities. The paper also demonstrates the use of sensitivity analysis with respect to operation decision parameters such as magnitude of pumping rates from wells for optimal management of water resources...|$|R
40|$|This paper {{presents}} a new method for predicting shape sensitivity of J-integral for {{a crack in}} a homogeneous, isotropic, and linear-elastic body subject to model-I loading condition. The method involves variational formulation of continuum mechanics, domain integral representation of J, and shape sensitivity analysis by direct differentiation. Numerical examples are presented to calculate the sensitivity of J using the proposed method. The maximum error in calculating the sensitivity of J is less than two percent. Based on these <b>analytical</b> <b>sensitivities,</b> standard reliability method was formulated to perform probabilistic fracture-mechanics analysis. A significant reduction of the computational effort can be achieved when solving fracture reliability problems using the <b>analytical</b> <b>sensitivities...</b>|$|R
40|$|This paper {{provides}} {{a survey of}} shape parameterization techniques for multidisciplinary optimization and highlights some emerging ideas. The survey focuses on the suitability of available techniques for complex configurations, with suitability criteria based on the efficiency, effectiveness, ease of implementation, and availability of <b>analytical</b> <b>sensitivities</b> for geometry and grids. The paper also contains a section on field grid regeneration, grid deformation, and sensitivity analysis techniques. Nomenclatur...|$|R
5000|$|Generally an <b>analytical</b> <b>sensitivity</b> of 50 is used, 15 is also {{possible}} if a greater sensitivity is desired. In {{order to reduce the}} counting variability, using groups of at least 10-15 animals was suggested, depending on the animal species of interest. In addition, the mean pre-treatment FECs should be at least 150 eggs per gram (epg), otherwise the FECRT can give unreliable results.|$|E
5000|$|The ampliPHOX Colorimetric Detection Technology {{was created}} as a {{research}} tool {{for the analysis of}} low-density microarrays by providing rapid, cost effective colorimetric detection with minimal user input. The combination of a simple reagent kit and a small benchtop instrument provide a powerful new detection technology for low density (<2500 spots) microarray applications and is produced by InDevR, Inc. With an investment about ten times lower than that required for a typical microarray scanner, ampliPHOX provides equivalent <b>analytical</b> <b>sensitivity</b> to fluorescence with a simple colorimetric readout.|$|E
5000|$|Ion {{suppression}} in LC-MS and LC-MS/MS {{refers to}} reduced detector response, or signal:noise as a manifested effect of competition for ionisation efficiency in the ionisation source, between the analyte(s) {{of interest and}} other endogenous or exogenous (e.g. plasticisers extracted from plastic tubes, mobile phase additives) species which have not {{been removed from the}} sample matrix during sample preparation. Ion suppression is not strictly a problem unless interfering compounds elute {{at the same time as}} the analyte of interest. In cases where ion suppressing species do co-elute with an analyte, the effects on the important analytical parameters including [...] precision, accuracy and limit of detection (<b>analytical</b> <b>sensitivity)</b> can be extensive, severely limiting the validity of an assay's results.|$|E
40|$|<b>Analytical</b> <b>sensitivities</b> of panel flutter {{constraints}} {{with respect}} to panel shape as well as thickness and material properties are derived and numerically tested. Cases of fixed in-plane loads and cases in which in-plane loads are variable (depending on panel and overall wing shape as well as material and sizing design variables) are considered. Accuracy of approximations and range of move limits required are studied in preparation for integration with nonlinear programming/approximation concept aeroelastic design synthesis methodology...|$|R
40|$|In this paper, {{we present}} an {{approach}} that extends isogeometric shape optimization from optimization of rectangular-like NURBS patches to the optimization of topologically complex geometries. We have successfully applied this approach in designing photonic crystals where complex geometries have been optimized to maximize the band gaps. Salient features of this approach include the following: 1) Multi-patch Coons representation of design geometry. The design geometry is represented {{as a collection of}} Coons patches where the four boundaries of each patch are represented as NURBS curves. The use of multiple patches is motivated by the need for representing topologically complex geometries. The Coons patches are used as a design representation so that designers do not need to specify interior control points and they provide a mechanism to compute <b>analytical</b> <b>sensitivities</b> for internal nodes in shape optimization. 2) Exact boundary conversion to the analysis geometry with guaranteed mesh injectivity. The analysis geometry is a collection of NURBS patches that are converted from the multi-patch Coons representation with geometric exactness in patch boundaries. The internal NURBS control points are embedded in the parametric domain of the Coons patches with a built-in mesh rectifier to ensure the injectivity of the resulting B-spline geometry, i. e. every point in the physical domain is mapped to one point in the parametric domain. 3) <b>Analytical</b> <b>sensitivities.</b> Sensitivities of objective functions and constraints with respect to design variables are derived through nodal sensitivities. The nodal sensitivities for the boundary control points are directly determined by the design parameters and those for internal nodes are obtained via the corresponding Coons patches...|$|R
40|$|An {{accurate}} quantitative {{detection of}} enteric viruses {{from the primary}} wastewater requires, sample concentration followed by extraction of nucleic acid with high purity. A highly efficient and sensitive method was developed for the concentration and quantitative detection of human adenovirus (HAdv) from wastewater samples. The two-step method which combines concentration of virus from 10 mL sample with centrifugal filters followed by extraction and purification of DNA with commercially available nucleic acid extraction kit resulted in high purity DNA for downstream quantitative PCR (qPCR). The results obtained on <b>analytical</b> <b>sensitivities</b> of five commercial nucleic acid extraction kits show that they differ in their ability for DNA yield and purity. Nevertheless, despite variable <b>analytical</b> <b>sensitivities</b> extracted nucleic acid {{was found to be}} relatively PCR inhibition free. The genomic copy numbers of HAdv detected from the same concentrated wastewater sample was significantly higher (P less 0. 01) when Qiagen Blood and Tissue kit (1. 54 × 106 L− 1) was used as compared to MoBio PowerSoil kit (5. 30 × 105 L− 1) which suggests that the nucleic acid extraction kit can influence the sensitivity of qPCR assays. The method developed in this study is simple, rapid, sensitive, and can be applicable for the qPCR detection of adenovirus and other DNA virus in wastewater...|$|R
50|$|Diagnostic assays using DNA {{hybridization}} {{are limited}} by the dissociation of antiparallell duplex helices. This can be improved by using DNA stabilizing molecules such as intercalators like ortho-TINA, which will stabilize the duplex formation. Studies show that the greatest increase in stability occurred when intercalating primers were used at the 3’ and 5’ ends. Placement of a TINA molecule in the oligonucleotide is capable of improving the <b>analytical</b> <b>sensitivity</b> of the probe hybridization. Para-TINA molecules decreases Tm in all positions especially when {{at the center of}} the oligonucleotide, while in the ortho-TINA molecules, the improvement was seen anywhere with neutralization at the center. Combination of terminal para- or ortho- molecule with an internal TINA molecule showed the highest increase of Tm. TINA molecules should be placed terminally for maximum increase in Tm. An increase in Tm increases the specificity of assays, like PCR.|$|E
50|$|In some places, {{perchlorate}} {{is detected}} because of contamination from industrial sites that use or manufacture it. In other places, {{there is no}} clear source of perchlorate. In those areas it may be naturally occurring. Natural perchlorate on Earth was first identified in terrestrial nitrate deposits of the Atacama Desert in Chile as early as in the 1880s {{and for a long time}} considered a unique perchlorate source. The perchlorate released from the historic use of Chilean nitrate based fertilizer which were imported to the U.S. by the hundreds of tons in the early 19th century can still be found in some groundwater sources of the United States. Recent improvements in <b>analytical</b> <b>sensitivity</b> using ion chromatography based techniques have revealed a more widespread presence of natural perchlorate, particularly in subsoils of Southwest USA, salt evaporites in California and Nevada, Pleistocene groundwater in New Mexico, and even present in extremely remote places such as Antarctica. The data from these studies and others indicate that natural perchlorate is globally deposited on Earth with the subsequent accumulation and transport governed by the local hydrologic conditions.|$|E
30|$|The use of {{this hot}} start RT in a MERS-CoV assay led to an {{increase}} of the <b>analytical</b> <b>sensitivity</b> of about twofold compared to the <b>analytical</b> <b>sensitivity</b> of the same assay with standard RT.|$|E
40|$|This paper {{presents}} an algorithm for {{the determination of}} <b>analytical</b> shape <b>sensitivities</b> using hybrid finite elements. Based on the modified Hellinger-Reissner principle, expressions for <b>analytical</b> shape <b>sensitivity</b> are derived explicitly and the same have been implemented using a hybrid scheme of numerical and symbolic computation. Presented in a two dimensional, linear elastic context, the derivations are expected to yield better displacement and stress derivatives. Illustrations are given to demonstrate {{the applicability of the}} proposed approach and the results are verified with convergent finite difference values. (C) 1998 Elsevier Science Ltd. All rights reserved...|$|R
50|$|Two-dimensional {{chromatography}} {{represents the}} most thorough and rigorous approach to {{evaluation of the}} proteome. While previously accepted approaches have utilized elution mode chromatographic approaches such as cation exchange to reversed phase HPLC, yields are typically very low requiring <b>analytical</b> <b>sensitivities</b> in the picomolar to femtomolar range. As displacement chromatography offers the advantage of concentration of trace components, two dimensional chromatography utilizing displacement rather than elution mode in the upstream chromatography step represents a potentially powerful tool for analysis of trace components, modifications, and identification of minor expressed components of the proteome.|$|R
40|$|Abstract The paper {{presents}} a general optimization methodology for flexible multibody systems which is demonstrated to find optimal layouts of fiber composite structures components. The {{goal of the}} optimization process is to minimize the structural deformation and, simultaneously, to fulfill a set of multidisciplinary constraints, by finding the optimal values for the fiber orientation of composite structures. In this work, a general formulation for the computation of the first order <b>analytical</b> <b>sensitivities</b> based {{on the use of}} automatic differentiation tools is applied. A critical overview {{on the use of the}} sensitivities obtained by automatic differentiation against <b>analytical</b> <b>sensitivities</b> derived and implemented by hand is made with the purpose of identifying shortcomings and proposing solutions. The equations of motion and sensitivities of the flexible multibody system are solved simultaneously being the accelerations and velocities of the system and the sensitivities of the accelerations and of the velocities integrated in time using a multi-step multi-order integration algorithm. Then, the optimal design of the flexible multibody system is formulated to minimize the deformation energy of the system subjected to a set of technological and functional constraints. The methodologies proposed are first discussed for a simple demonstrative example and applied after to the optimization of a complex flexible multibody system, represented by a satellite antenna that is unfolded from its launching configuration to its functional state. [URL]...|$|R
40|$|In small ruminants, faecal egg counts (FECs) and {{reduction}} in FECs (FECR) {{are the most}} common methods for the assessment of intensity of gastrointestinal (GI) nematodes infections and anthelmintic drug efficacy, respectively. The main limitation of these methods is the time and cost to conduct FECs on a representative number of individual animals. A cost-saving alternative would be to examine pooled faecal samples, however little is known regarding whether pooling can give representative results. In the present study, we compared the FECR results obtained by both an individual and a pooled examination strategy across different pool sizes and <b>analytical</b> <b>sensitivity</b> of the FEC techniques. A survey was conducted on 5 sheep farms in Scotland, where anthelmintic resistance is known to be widespread. Lambs were treated with fenbendazole (4 groups), levamisole (3 groups), ivermectin (3 groups) or moxidectin (1 group). For each group, individual faecal samples were collected from 20 animals, at baseline (D 0) and 14 days after (D 14) anthelmintic administration. Faecal samples were analyzed as pools of 3 - 5, 6 - 10, and 14 - 20 individual samples. Both individual and pooled samples were screened for GI strongyle and Nematodirus eggs using two FEC techniques with three different levels of <b>analytical</b> <b>sensitivity,</b> including Mini-FLOTAC (<b>analytical</b> <b>sensitivity</b> of 10 eggs per gram of faeces (EPG)) and McMaster (<b>analytical</b> <b>sensitivity</b> of 15 or 50 EPG). For both Mini-FLOTAC and McMaster (<b>analytical</b> <b>sensitivity</b> of 15 EPG), there was a perfect agreement in classifying the efficacy of the anthelmintic as 'normal', 'doubtful' or 'reduced' regardless of pool size. When using the McMaster method (<b>analytical</b> <b>sensitivity</b> of 50 EPG) anthelmintic efficacy was often falsely classified as 'normal' or assessment was not possible due to zero FECs at D 0, and this became more pronounced when the pool size increased. In conclusion, pooling ovine faecal samples holds promise as a cost-saving and efficient strategy for assessing GI nematode FECR. However, for the assessment FECR one will need to consider the baseline FEC, pool size and <b>analytical</b> <b>sensitivity</b> of the method...|$|E
30|$|Hot start Taq polymerases {{have proven}} to be {{valuable}} tools to improve <b>analytical</b> <b>sensitivity</b> and specificity in real-time PCR assays, by reducing non-specific products.|$|E
40|$|Background: A novel swine origin {{influenza}} virus (S-OIV) (H 1 N 1) is spreading worldwide and threatens to become pandemic. Objectives: Determine <b>analytical</b> <b>sensitivity</b> of selected commercially available rapid influenza antigen detection tests in detecting S-OIV H 1 N 1. Study design: Serial dilutions of two S-OIV isolates, one seasonal influenza A (H 1 N 1) isolate and a nasopharyngeal aspirate {{from a patient}} with S-OIV disease were tested in five commercially available influenza antigen detection tests and by virus isolation in cell culture. Viral M gene copy number was determined by quantitative PCR methods. Results: The <b>analytical</b> <b>sensitivity</b> of the five influenza antigen detection tests for S-OIV (tissue culture infectious dose 50 (TCID 50) log 10 3. 3 - 4. 7 was comparable with that of seasonal influenza (TCID 50 log 10 4. 0 - 4. 5). Conclusion: The <b>analytical</b> <b>sensitivity</b> of the selected influenza A antigen detection tests for detection of S-IOV was comparable with that of seasonal influenza H 1 N 1. © 2009 Elsevier B. V. All rights reserved. link_to_subscribed_fulltex...|$|E
40|$|This paper {{presents}} the shape optimization of a compliant beam for prescribed load-displacements response. The {{analysis of the}} design {{is based on the}} isogeometric analysis framework for an enhanced fidelity between designed and analysed shape. The sensitivities used for an improved optimization procedure are derived analytically, including terms due to the use of nonlinear state equations and nonlinear boundary constraint equations. A design example is illustrated where a beam shape is found that statically balances a pendulum over a range of 180 ° with good balancing quality. The <b>analytical</b> <b>sensitivities</b> are verified by comparison with finite difference sensitivities. </p...|$|R
40|$|In this paper, {{a general}} {{formulation}} for the computation of the first-order <b>analytical</b> <b>sensitivities</b> {{based on the}} direct method using automatic differentiation of flexible multibody systems is presented. The direct method for sensitivity calculation is obtained by differentiating the equations that define {{the response of the}} flexible multibody systems of composite materials with respect to the design variables, which are the ply orientations of the laminated. In order to appraise the benefits of the approach suggested and to highlight the risks of the procedure, the <b>analytical</b> <b>sensitivities</b> are compared with the numerical results obtained by using the finite difference method. For the beam composite material elements, the section properties and their sensitivities are found using an asymptotic procedure that involves a two-dimensional (2 -D) finite element analysis of their cross section. The equations of the sensitivities are obtained by automatic differentiation and integrated in time simultaneously with the equations of motion of the multibody systems. The equations of motion and the sensitivities of the flexible multibody system are solved and the accelerations, velocities and the sensitivities of accelerations and velocities are integrated in time using a multi-step multi-order integration algorithm. Through the application of the methodology to two simple flexible multibody systems the difficulties and benefits of the procedure, with respect to finite difference approaches or to the direct implementation of the analytic sensitivities, are discussed. Copyright © 2008 John Wiley & Sons, Ltd. [URL]...|$|R
40|$|International audienceIn this paper, an optimisation-based {{approach}} is developed for {{the determination of the}} cyclic steady-sate (CSS) of a pressure swing adsorption process (PSA). It consists in treating the simulation problem as a single dynamic optimisation problem where the performance index is the CSS condition, the decision variables are the state variables {{at the start of the}} cycle and the constraints are given by the process model equations with associated initial conditions. The resulting optimisation problem is solved using a gradient-based non linear programming (NLP) method, e. g. SQP method, where the gradients are computed by means of four different methods: finite differences, numerical and <b>analytical</b> <b>sensitivities</b> and adjoint system methods...|$|R
40|$|Research and {{surveillance}} activities involving airborne pathogens {{rely on the}} capture and enumeration of pathogens suspended in aerosols. The objective {{of this study was}} to estimate the <b>analytical</b> <b>sensitivity</b> (detection threshold) of each of 4 air samplers for Porcine reproductive and respiratory syndrome virus (PRRSV) and swine influenza virus (SIV). In a 5 -min sampling period under controlled conditions, the <b>analytical</b> <b>sensitivity</b> of the AGI- 30 (Ace Glass, Vineland, New Jersey, USA), AGI- 4 (Ace Glass), SKC BioSampler (SKC, Eighty Four, Pennsylvania, USA), and Midwest Micro-Tek sampler (Midwest Micro-Tek, Brookings, South Dakota, USA) was calculated at 1 × 101. 1, 1 × 101. 3, 1 × 101. 1, and 1 × 101. 2 median tissue culture infectious dose (TCID 50) equivalents for PRRSV and 1 × 101. 4, 1 × 101. 1, 1 × 101. 6, and 1 × 101. 2 TCID 50 equivalents for SIV [per 60 L (5 -min sampling period) ]. Despite marked differences in sampler design, no statistically significant difference in <b>analytical</b> <b>sensitivity</b> was detected between the samplers for collection of artificially produced aerosols containing cell-culture-propagated PRRSV or SIV...|$|E
40|$|In this paper, {{we asked}} if it is {{possible}} to identify the best primers and reaction conditions based on improvements in reaction speed when optimizing isothermal reactions. We used digital single-molecule, real-time analyses of both speed and efficiency of isothermal amplification reactions, which revealed that improvements in the speed of isothermal amplification reactions did not always correlate with improvements in digital efficiency (the fraction of molecules that amplify) or with <b>analytical</b> <b>sensitivity.</b> However, we observed that the speeds of amplification for single-molecule (in a digital device) and multi-molecule (e. g. in a PCR well plate) formats always correlated for the same conditions. Also, digital efficiency correlated with the <b>analytical</b> <b>sensitivity</b> of the same reaction performed in a multi-molecule format. Our finding was supported experimentally with examples of primer design, the use or exclusion of loop primers in different combinations, and the use of different enzyme mixtures in one-step reverse-transcription loop-mediated amplification (RT-LAMP). Our results show that measuring the digital efficiency of amplification of single-template molecules allows quick, reliable comparisons of the <b>analytical</b> <b>sensitivity</b> of reactions under any two tested conditions, independent of the speeds of the isothermal amplification reactions...|$|E
40|$|None of the {{commercial}} HPV tests are U. S. FDA-approved for testing of cervical cytology specimens in SurePath preservative. Still, ~ 30 % of HPV testing is performed on specimens in this formalin-containing preservative. Formalin-induced DNA fragmentation and cross-linking may interfere with HPV detection. We evaluated <b>analytical</b> <b>sensitivity</b> and specimen stability of the cobas 4800 HPV (Roche) and Hybrid Capture 2 HPV (HC 2, Qiagen) tests with residual cervical cytology samples in SurePath preservative available within 1 week of collection. Cobas testing was performed with and without heating samples at 120 °C for 20 min diluted 1 : 1 in an alkaline environment (pretreatment) to revert DNA crosslinking. Stability was tested after 2 weeks of storage at ambient temperature followed by ≤ 10 weeks at 4 °C. <b>Analytical</b> <b>sensitivity</b> and positivity rates (HC 2, 18 %; cobas pretreated, 46 %; cobas untreated, 47 %) were greater for cobas than HC 2 (n = 682). After 6 weeks of storage, mean HC 2 ratios were lower (mean 0. 9, SD 6. 3) but high variability limited statistical power to detect trends. Cobas threshold cycles (Ct's) increased in untreated (mean 2. 1) but not pretreated samples (mean 0. 3; n = 110; p≤ 0. 0001). Overall, cobas had greater <b>analytical</b> <b>sensitivity</b> for samples in SurePath preservative. Although pretreatment introduced a manual sample transfer step and 30 min of incubation times, it improved stability without negatively affecting <b>analytical</b> <b>sensitivity.</b> While awaiting results of large trials to evaluate the clinical performance of cobas, {{the addition of the}} pretreatment step may improve the detection of HPV, especially after prolonged sample storage...|$|E
40|$|Summary: Developing liquid {{chromatography}} tandem mass spectrometry (LC-MS/MS) analyses of (bio) chemicals is both time consuming and challenging, {{largely because of}} the large number of LC and MS instrument parameters that need to be optimized. This bottleneck significantly impedes our ability to establish new (bio) analytical methods in fields such as pharmacology, metabolomics and pesticide research. We report the development of a multi-platform, user-friendly software tool MUSCLE (multi-platform unbiased optimization of spectrometry via closed-loop experimentation) for the robust and fully automated multi-objective optimization of targeted LC-MS/MS analysis. MUSCLE shortened the analysis times and increased the <b>analytical</b> <b>sensitivities</b> of targeted metab-olite analysis, which was demonstrated on two different manufacturer’s LC-MS/MS instruments...|$|R
30|$|Creative and {{critical}} thinking (Freire 2000) helps language learners develop awareness of others and value and appreciate differences. Such thinking also fosters constructive <b>analytical</b> skills, <b>sensitivity</b> to others, cultural {{and critical}} awareness {{of the self and}} others, and an evolving worldview (Freire 1970).|$|R
50|$|Signals From Within - Chemists' {{knowledge}} of the interaction of radiation and matter {{is the basis for}} <b>analytical</b> methods of <b>sensitivity</b> and specificity.|$|R
30|$|The {{volume of}} the {{extraction}} solvent was studied {{in the range of}} 2 to 5 mL. Four milliliter was chosen as an optimum volume for the extraction solvent. More than 4 mL leads to a decrease in <b>analytical</b> <b>sensitivity</b> basically due to dilution (Figure 2 C).|$|E
40|$|A {{diagnostic}} assay using immunomagnetic separation {{was developed}} to capture Mycobacterium avium subsp. paratuberculosis (MAP) from bovine feces by means of IgY derived from chicken eggs. The antibody was coupled directly {{onto the surface of}} MagaCell cellulose/iron oxide beads or indirectly by being mixed with MagaBeads and a rabbit IgG linker against chicken antigen. Optimization parameters for the immunocapture included incubation time, temperature, volume, and type of immunocapture beads. <b>Analytical</b> <b>sensitivity</b> and specificity were determined by extracting DNA from the captured bacteria and amplifying it by polymerase chain reaction (PCR). The 2 bead preparations had the same <b>analytical</b> <b>sensitivity,</b> and the detection level of MAP cells in spiked bovine feces was 2 × 104 cells/g. No PCR inhibition was observed with DNA from the organisms captured with use of the MagaCell-IgY beads...|$|E