17|982|Public
50|$|The {{grid cell}} along with Head {{direction}} <b>cells,</b> <b>Border</b> cells, speed cells and Place cells provide {{a correlation between}} different movement aspects of the animal with respect to its environment.|$|E
40|$|Grid <b>cells,</b> <b>border</b> cells, head-directions cells, and conjunctive {{correlates}} {{found in}} the Medial Entorhinal Cortex (MEC) indicate the presence of highly specialized neural circuits that process allocentric space. New technical advancements, as described by Tang et al. (2014) in this issue, offer an integrated approach to charting the function and organization of these circuits...|$|E
40|$|A flexible, robust {{method for}} linking grids of locally refined models {{constructed}} with different numerical methods {{is needed to}} address a variety of hydrologic problems. This work outlines and tests a new ghost-node model-linking method for a refined ''child'' model that is contained within a larger and coarser ''parent'' model {{that is based on}} the iterative method of Mehl and Hill (2002, 2004). The method is applicable to steady-state solutions for ground-water flow. Tests are presented for a homogeneous two-dimensional system that has either matching grids (parent <b>cells</b> <b>border</b> an integer number of child cells; Figure 2 a) or non-matching grids (parent <b>cells</b> <b>border</b> a non-integer number of child cells; Figure 2 b). The coupled grids are simulated using the finite-difference and finite-element models MODFLOW and FEHM, respectively. The simulations require no alteration of the MODFLOW or FEHM models and are executed using a batch file on Windows operating systems. Results indicate that when the grids are matched spatially so that nodes and child cell boundaries are aligned, the new coupling technique has error nearly equal to that when coupling two MODFLOW models (Mehl and Hill, 2002). When the grids are non-matching, model accuracy is slightly increased over matching-grid cases. Overall, results indicate that the ghost-node technique is a viable means to accurately couple distinct models because the overall error is less than if only the regional model was used to simulate flow in the child model's domain...|$|E
40|$|The {{location}} of striated <b>border</b> <b>cells</b> versus non-striated <b>border</b> <b>cells</b> during enamel maturation in the rat incisor was studied by light microscopy. Serial cross {{sections of the}} lower incisors were examined from {{a segment of the}} incisor in sections which also included the first molar tooth. In the series recorded here every cross section showed both striated and non-striated <b>border</b> <b>cells.</b> A map showing the distribution of cells on the enamel surface, as plotted from their position in each of the cross sections, reveals that the non-striated <b>border</b> <b>cells</b> traverse the enamel as oblique bands. Between the narrow bands of non-striated <b>border</b> <b>cells</b> were wide bands of striated <b>border</b> <b>cells.</b> The non-striated <b>border</b> <b>cells</b> were joined at their basal nuclear poles by contacts which appeared to separate the lateral inter-ameloblast space from the space between the papillary-ridge cells. Neither the striated <b>border</b> <b>cells</b> nor the non-striated <b>border</b> <b>cells</b> went entirely {{to the edge of the}} enamel organs. The above pattern of striated <b>border</b> <b>cells</b> and non-striated <b>border</b> <b>cells</b> is regarded to be a manifestation of the cyclical activity of maturation ameloblasts...|$|R
5000|$|... #Caption: Asymmetric {{localization}} {{of proteins}} to reciprocal <b>cell</b> <b>borders</b> in the apical plane of a polarized epithelial.|$|R
50|$|Star Wars, Series 3 (1977) - Yellow border. 66 {{cards and}} 11 {{stickers}} (black film <b>cell</b> <b>border)</b> (Cards 133-198 Stickers 23-33).|$|R
40|$|A genital bud was {{observed}} in the aboral hemal system of Asterias rubens. Its structure {{is very similar to}} the parietal structure of a gonad. Three cell types are recognized, two of them (primordial germinal cells and ciliated somadc <b>cells)</b> <b>border</b> the periphery of the genital bud, the third type (pseudopodial cells) is found in the lumen. They form a cylindric structure surrounded by a thick and continuous basal lamina. The genital bud has a cyclical appearance and development within the aboral hemal system. Its major development coincides with the regression of the gonads that occurs after the natural spawning of gametes. The possible involvement of the genital bud in the initiation of the following year’s gametogenesis is considered. The complete regression of the gonad after spawning suggests an annual neoformation of the gonad preceding the initiation of the gametogenetic cycle. © 1990 Balaban. SCOPUS: ar. jinfo:eu-repo/semantics/publishe...|$|E
40|$|AbstractDuring development, cells {{change their}} {{position}} extensively. Although the basic cellular mechanisms involved in cell locomotion {{have been studied}} mostly in cultured cells, genetic and molecular approaches using model organisms are starting {{to shed light on}} the complex events influencing cell migration during development. Recent technical advances in following and analyzing migrating cells inside the living embryo offer the possibility of understanding how different signaling systems regulate the fundamental cellular processes underlying guided cell migration in vivo. In Drosophila melanogaster, studies of migrating cells have concentrated mainly on hemocytes, germ <b>cells,</b> <b>border</b> cells, and tracheal cells. Interestingly, most of these cells were recently shown to make different cellular extensions and to use receptor tyrosine kinases to sense the chemoattractive signal. This review describes our current understanding of how different signaling networks control guided migration in these four systems and discusses the impact of novel imaging techniques on the study of guided cell migration during development...|$|E
40|$|Copyright © 2006 Elsevier B. V. All rights reserved. The human gene AGTRL 1 is an {{angiotensin}} II receptor-like gene {{expressed in}} vasculature, which {{acts as the}} receptor for the small peptide APELIN, and a co-receptor for Human Immunodeficiency Virus. Mammalian AGTRL 1 {{has been shown to}} modulate cardiac contractility, venous and arterial dilation, and endothelial cell migration in vitro, but no {{role in the development of}} the vasculature, or other tissues, has been described. We report the identification and expression of the zebrafish ortholog of the human gene AGTRL 1. Zebrafish agtrl 1 a is first expressed before epiboly in dorsal precursors. During epiboly it is expressed in the enveloping layer, yolk syncytial layer and migrating mesendoderm. During segmentation stages, expression is observed in epithelial structures such as adaxial <b>cells,</b> <b>border</b> cells of the newly formed somites, developing lens, otic vesicles and venous vasculature. B. Tucker, C. Hepperle, D. Kortschak, B. Rainbird, S. Wells, A. C. Oates and M. Lardelli[URL]...|$|E
50|$|Star Wars, Series 4 (1977) - Green border. 66 {{cards and}} 11 {{stickers}} (red film <b>cell</b> <b>border)</b> (Cards 199-264 Stickers 34-44).|$|R
50|$|Star Wars, Series 5 (1977) - Orange border. 66 {{cards and}} 11 {{stickers}} (orange film <b>cell</b> <b>border)</b> (Cards 265-330 Stickers 45-55).|$|R
3000|$|Note {{that the}} model is {{normalized}} to provide unit path loss at <b>cell</b> <b>border.</b> Thus, the results reported here must be rescaled in terms of [...]...|$|R
40|$|During development, cells {{change their}} {{position}} extensively. Although the basic cellular mechanisms involved in cell locomotion {{have been studied}} mostly in cultured cells, genetic and molecular approaches using model organisms are starting {{to shed light on}} the complex events influencing cell migration during development. Recent technical advances in following and analyzing migrating cells inside the living embryo offer the possibility of understanding how different signaling systems regulate the fundamental cellular processes underlying guided cell migration in vivo. In Drosophila melanogaster, studies of migrating cells have concentrated mainly on hemocytes, germ <b>cells,</b> <b>border</b> cells, and tracheal cells. Interestingly, most of these cells were recently shown to make different cellular extensions and to use receptor tyrosine kinases to sense the chemoattractive signal. This review describes our current understanding of how different signaling networks control guided migration in these four systems and discusses the impact of novel imaging techniques on the study of guided cell migration during development...|$|E
40|$|SummaryThe medial {{entorhinal cortex}} (MEC) and the {{adjacent}} parasubiculum {{are known for}} their elaborate spatial discharges (grid <b>cells,</b> <b>border</b> cells, etc.) and the precessing of spikes relative to the local field potential. We know little, however, about how spatio-temporal firing patterns map onto cell types. We find that cell type is a major determinant of spatio-temporal discharge properties. Parasubicular neurons and MEC layer 2 (L 2) pyramids have shorter spikes, discharge spikes in bursts, and are theta-modulated (rhythmic, locking, skipping), but spikes phase-precess only weakly. MEC L 2 stellates and layer 3 (L 3) neurons have longer spikes, do not discharge in bursts, and are weakly theta-modulated (non-rhythmic, weakly locking, rarely skipping), but spikes steeply phase-precess. The similarities between MEC L 3 neurons and MEC L 2 stellates on one hand and parasubicular neurons and MEC L 2 pyramids on the other hand suggest two distinct streams of temporal coding in the parahippocampal cortex...|$|E
40|$|SummaryLocal {{space is}} {{represented}} {{by a number of}} functionally specific cell types, including place cells in the hippocampus and grid cells, head direction cells, and border cells in the medial entorhinal cortex (MEC). These cells form a functional map of external space already at the time when rat pups leave the nest {{for the first time in}} their life, at the age of 2. 5  weeks. However, while place cells have adult-like firing fields from the outset, grid cells have irregular and variable fields until the fourth week, raising doubts about their contribution to place cell firing at young age. Recording in MEC of juvenile rats, we show that, unlike grid <b>cells,</b> <b>border</b> cells express adult-like firing fields from the first days of exposure to an open environment, at postnatal days 16 – 18. Thus, spatial signals from border cells may be sufficient to maintain spatially localized firing in juvenile hippocampal place cells...|$|E
5000|$|... #Caption: Micrograph of an oligodendroglioma {{showing the}} {{characteristic}} branching, small, chicken wire-like {{blood vessels and}} fried egg-like cells, with clear cytoplasm and well-defined <b>cell</b> <b>borders.</b> H&E stain.|$|R
40|$|Human and rabbit corneas {{were stored}} at 4 degrees C in K-Sol {{with and without}} {{antioxidants}} (ascorbic acid, reduced glutathione, alpha-tocopherol, and retinol acetate) {{for two to three}} weeks. All the corneas were then examined visually and by scanning electron microscopy. They appeared clear and slightly oedematous. Scanning electron micrographs were used to grade corneal endothelial cell morphology in a masked manner in terms of <b>cell</b> shape, <b>cell</b> <b>borders,</b> <b>cell</b> swelling, and apical holes. Corneas stored in K-Sol without antioxidants showed changes in <b>cell</b> shape, <b>cell</b> <b>borders,</b> and apical holes. Human corneas showed more morphological changes than rabbit corneas. The results suggest that antioxidants in K-Sol have {{an important role in the}} preservation of endothelial cell morphology...|$|R
40|$|Cells {{display a}} large variety of shapes when plated in {{classical}} culture conditions despite their {{belonging to a}} common cell type. These shapes are transitory, since cells permanently disassemble and reassemble their cytoskeleton while moving. Adhesive micropatterns are commonly used to confine cell shape within a given geometry. In addition the micropattern can be designed so as to impose cells to spread upon adhesive and nonadhesive areas. Modulation of the pattern geometry allows {{the analysis of the}} mechanisms governing the determination of cell shape in response to external adhesive conditions. In this study, we show that the acquisi-tion of cell shape follows two stages where initially the cell forms contact with the micropattern. Here, the most distal contacts made by the cell with the micropattern define the apices of the cell shape. Then secondly, the <b>cell</b> <b>borders</b> that link two apices move so as to minimise the distance between the two apices. In these <b>cell</b> <b>borders,</b> the absence of an underlying adhesive substrate is overcome by stress fibres forming between the apices, which in turn are marked by an accumulation of focal adhesions. By inhibiting myosin function, <b>cell</b> <b>borders</b> on nonadhesive zones become more concave, suggesting that the stress fibres work against the membrane tension in the <b>cell</b> <b>border.</b> Moreover, this suggested that traction forces are unevenly distributed in stationary, nonmigrating, cells. By comparing the stress fibres in cells with one, two, or three nonadherent <b>cell</b> <b>borders</b> it was reasoned that stress fibre strength is inversely proportional to number. We conclude that cells of a given area can generate the same total sum of tractional forces but that these trac-tional forces are differently spaced depending on the spatial distribution of its adher...|$|R
40|$|International audiencePath {{integration}} is a navigation strategy that requires animals to integrate self-movements during exploration {{to determine their}} position in space. The medial entorhinal cortex (MEC) has been suggested to play {{a pivotal role in}} this process. Grid cells, head-direction <b>cells,</b> <b>border</b> cells as well as speed cells within the MEC collectively provide a dynamic representation of the animal position in space based on the integration of self-movements. All these cells are strongly modulated by theta oscillations, thus suggesting that theta rhythmicity in the MEC may be essential for integrating and coordinating selfmovement information during navigation. In this study, we first show that excitotoxic MEC lesions, but not dorsal hippocampal lesions, impair the ability of rats to estimate linear distances based on self-movement information. Next, we report similar deficits following medial septum inactivation, which strongly impairs theta oscillations in the entorhinal–hippocampal circuits. Taken together, these findings demonstrate a major role of the MEC and MS in estimating distances to be traveled, and point to theta oscillations within the MEC as a neural mechanism responsible for the integration of information generated by linear self-displacement...|$|E
40|$|The {{mammalian}} space circuit {{is known}} to contain several functionally specialized cell types, such as place cells in the hippocampus and grid cells, head-direction cells and border cells in the medial entorhinal cortex (MEC). The interaction between the entorhinal and hippocampal spatial representations is poorly understood, however. We have developed an optogenetic strategy to identify functionally defined cell types in the MEC that project directly to the hippocampus. By expressing channelrhodopsin- 2 (ChR 2) selectively in the hippocampus-projecting subset of entorhinal projection neurons, {{we were able to}} use light-evoked discharge as an instrument to determine whether specific entorhinal cell groups-such as grid <b>cells,</b> <b>border</b> cells and head-direction cells-have direct hippocampal projections. Photoinduced firing was observed at fixed minimal latencies in all functional cell categories, with grid cells as the most abundant hippocampusprojecting spatial cell type. We discuss how photoexcitation experiments can be used to distinguish the subset of hippocampus-projecting entorhinal neurons from neurons that are activated indirectly through the network. The functional breadth of entorhinal input implied by this analysis opens up the potential for rich dynamic interactions between place cells in the hippocampus and different functional cell types in the entorhinal cortex (EC) ...|$|E
40|$|The {{superficial}} {{layers of}} the medial entorhinal cortex(MEC) contain serval functionally specialized spatial cell types. suck a grid cells, head direction <b>cells,</b> <b>border</b> cells and cells with conjunctive properties. It is currently not know how the firing patterns of these vell populations map onto the architecture og the MEC circuit. Results from recent work {{suggest that there are}} two largely non-overlapping neuronal populations within superficial layers of MEC with different prosjecting targets. One of them target the hippocampus while the other prosjects extrahippocampally. It has been shown that all funtional MEC cell types prosject to the hippocampus, and a large part of these cells were grid cells. Based on these observations we wanted to investigate if there is a firrerence in fruntional cell distribution of MEC cells projecting to the contralateral MEC and cells prosjecting to hippocampus. Retrogradely transportable recombinant adeno-associated virus expressing Flag-tagged channelrhodopsin- 2 (ChR 2), was injected in left MEC of 6 rats. This introduced optogenetic control over MEC neurons with direct årosjection to the contralateral MEC. Combining optogenetic and electrophysiological in vivo recordings, allowed identification of functional cell types with direct prosjection to the contralateral MEC, as these cells showed minimal response latencies to laser stimulations in the medial entorhinal cortex. We found border cells, head direction cells, non-spatial cells and interneurons with direct projection to the MEC, but no grid cells. This distrubution is in contrasts with the one found to project to the hippocampus, where grid cells are the predominant spatial cell type. More data are requred to determine if the sparsity of respnsive grid cells reflects limited sampling, or if the contralaterally [...] projecting cell population has distinct functional properties. </p...|$|E
50|$|The {{microscopic}} features include: indistinct <b>cell</b> <b>borders,</b> mitoses, {{a variable}} architecture (tubulopapillary, glandular, solid, embryoid bodies - ball of cells surrounded by empty space on three sides), nuclear overlap, and necrosis.|$|R
30|$|We {{address the}} {{problems}} at the most critical area in a cellular multicarrier {{code division multiple access}} (MC-CDMA) network, namely, the <b>cell</b> <b>border.</b> At a mobile terminal the diversity can be increased by using transmit diversity techniques such as cyclic delay diversity (CDD) and space-time coding like Alamouti. We transfer these transmit diversity techniques to a cellular environment. Therefore, the performance is enhanced at the <b>cell</b> <b>border,</b> intercellular interference is avoided, and soft handover procedures are simplified all together. By this, macrodiversity concepts are exchanged by transmit diversity concepts. These concepts also shift parts of the complexity from the mobile terminal to smart base stations.|$|R
3000|$|... of 15 [*]dB per {{resource}} block at the <b>cell</b> <b>border</b> and {{path loss}} {{is included in}} the channel model. We assume also a realistic MIMO channel with time, frequency, and spatial correlation among the elements of [...]...|$|R
40|$|To run a 3 D spherical {{simulation}} with {{a reasonable}} resolution {{in an appropriate}} time, the code must work {{with more than one}} CPU in parallel. Typically a domain decomposition of the grid is applied, which is responsible for an optimal breakdown of the grid into p equal volumes, where p specifies the amount of domains and processors. An efficient domain decomposition minimizes the area between those sections, leading to a minimized overhead of data exchange between the processors. The resulting speedup of this method with the newly developed GAIA mantle convection code is presented in Figure 1 (right). Halo-cells, or sometimes called ghost-cells, arise in domain decomposition as additional cells in each domain to build an overlapping zone where data is exchanged. These <b>cells</b> <b>border</b> each domain and are on the same position as their active cells on the neighboring domain. The ratio between the amount of halo-cells to grid cells is a first measure of efficiency for parallelization because it determines the amount of data transported from one domain to another. One approach to decompose a sphere laterally is to distribute p points on the surface of a sphere so that the global potential energy becomes minimal. This is known as the Thomsom problem [Thomson, 1904]. After this step the domain affiliation for every cell is derived by its closest "Thomson" point. The resulting decomposition as shown in figure 1 leads to equal volumes which is important to balance the computational efforts for each CPU. Some p reproduce platonic solids; p= 4 creates a tetrahedron, p= 6 a cube and p= 12 a dodecahedron. However, all p> 1 show a certain symmetry [Wales and Ulker 2006]. </p...|$|E
40|$|Recent {{studies have}} {{revealed}} that all functional cell types in superficial layers of medial entorhinal cortex have projections to the hippocampus. Furthermore, hippocampal functions in connection with neural circuits in medial entorhinal cortex offer a good systems approach to understanding the basic functions of episodic memory formation. Then, we draw our attentions to the connections complexity between both medial entorhinal cortex (MEC) hemispheres to investigate the pattern of connectivity of MEC-MEC functional cell type neurons, furthermore, providing further data associated with spatial memory formation for future research. There are several functional spatial cell types in superficial layer 2 of MEC that code various spatially information in navigational system. These cells including; grid cells, head-direction <b>cells,</b> <b>border</b> cells, conjunctive grid x head-direction cells, conjunctive border x head-direction cells, unknown principal cells and interneurons. By injecting retrogradely transportable recombinant adeno-associated virus carrying channelrhodopsin- 2 transgene in the left MEC of two rats and also right MEC of three rats, optogenetic control over entorhinal neurons with direct projections to the contralateral MEC has been presented. Optogenetics application together with electrophysiological recordings in vivo, enabled us to determine functionally specialized spatial cell types in MEC projecting to the contralateral MEC, as these cells contained minimal response latencies to laser stimulations in MEC. We here show that, unknown principal cells and interneurons, among all functional cell types presented in MEC, had a strong projection from left MEC to the contralateral right MEC and vise versa. Grid cells that are recently {{found to have a}} massive projections to the hippocampus, here in our study, only a small number, showed responses to light that might suggest the probability of their contralateral MEC connections. However, these responses were too much weak to convince us that these cells had projections to contralateral MEC. No more data were discovered to support projections of other detected spatial cell types to the contralateral MEC at this study...|$|E
40|$|Animals {{are capable}} of {{navigating}} through an environment. This requires them to recognise, remember and relate positions. Spatial representation {{is one of the}} main tasks during navigation. The brain seems to have a world centric positioning system such that we remember positions of objects in relation to a reference frame. Such spatial representation is believed to have been constructed in the hippocampus and related brain areas. Place cells, head direction cells, grid cells and border cells seem to transform vestibular information to spatial information in the brain. However, when psychological studies reveal how these areas are connected together, the process of transforming vestibular information to the kind of representation seen in place cells is still in question. In this thesis, we develop a hypothetical model, consisting of head direction cells, grid cells, sensory <b>cells,</b> <b>border</b> cells, place cells and connections between each. Our aim here is to create a biologically feasible spatial representation of the environment with activity patterns of neurons in the model similar to firing patterns of place cells in the hippocampus. With this model, we simulate a subset of the components in order to develop a spatial representation. This subset consists of a single dimension head direction representation, periodic two dimension grid cells representation, and finally a monotonic two dimension place cell representation. We offer two approaches for connections between grid cells and place cells, hardwired and learnt connections. The hardwiring approach provides us an understanding of how grid cell firing can be transformed into place cell representation. The learning approach illustrates a biologically plausible method in the development of spatial representation. Our results show that it is possible to achieve spatial representation by use of Bienenstock, Cooper and Munro (BCM) learning method which has a dynamic threshold. To further evaluate our model and determine its practical application we embed it in a mobile robot. A robotic implementation provides an opportunity for us to evaluate the model under the presence of noise both in the internal information and from the environment. Although our robotic experiments are limited, they demonstrate that our model provides a fundamental biologically plausible infrastructure for robotic navigation...|$|E
40|$|Cadherins are {{involved}} in a variety of morphogenetic movements during animal development. However, it has been difficult to pinpoint the precise function of cadherins in morphogenetic processes due to the multifunctional nature of cadherin requirement. The data presented here indicate that homophilic adhesion promoted by Drosophila E-cadherin (DE-cadherin) mediates two cell migration events during Drosophila oogenesis. In Drosophila follicles, two groups of follicle <b>cells,</b> the <b>border</b> <b>cells</b> and the centripetal cells migrate on the surface of germline cells. We show that the <b>border</b> <b>cells</b> migrate as an epithelial patch in which two centrally located cells retain epithelial polarity and peripheral cells are partially depolarized. Both follicle cells and germline cells express DE-cadherin, and <b>border</b> <b>cells</b> and centripetal cells strongly upregulate the expression of DE-cadherin shortly before and during their migration. Removing DE-cadherin from either the follicle cells or the germline cells blocks migration of <b>border</b> <b>cells</b> and centripetal cells on the surface of germline cells. The function of DE-cadherin in <b>border</b> <b>cells</b> appears to be specific for migration as the formation of the <b>border</b> <b>cell</b> cluster and the adhesion between <b>border</b> <b>cells</b> are not disrupted in the absence of DE-cadherin. The speed of migration depends on the level of DE-cadherin expression, as <b>border</b> <b>cells</b> migrate more slowly when DE-cadherin activity is reduced. Finally, we show that the upregulation of DE-cadherin expression in <b>border</b> <b>cells</b> depends on the activity of the Drosophila C/EBP transcription factor that is essential for <b>border</b> <b>cell</b> migration...|$|R
40|$|We address inter-cell {{interference}} cancellation (ICIC) {{within a}} cellular multi-carrier code {{division multiple access}} (MC-CDMA) downlink system. The iterative soft ICIC concept is based {{on the use of the}} log-likelihood ratios from the decoding process. This approach shows significant performance gains in the severe <b>cell</b> <b>border</b> area. The iterative ICIC scheme can approach the single-user bound, and therefore, eliminates almost the interference at the <b>cell</b> <b>border.</b> Analysis regarding the convergence behavior of the ICIC strategy to more than one interfering cell are given based on the extrinsic information of the iterative process. Furthermore, a strategy of choosing the strongest interferers to be canceled is investigated which reduces significantly the complexity of the cancellation algorithm. ...|$|R