24|436|Public
50|$|Increasing Utilization of Existing Infrastructure: As a {{component}} of ADA infrastructure, the new system concepts will enable more efficient operation of the power system, allowing closer control of voltage profiles (e.g. <b>conservation</b> <b>voltage</b> <b>reduction,</b> closely related to voltage optimisation) and maximization of energy throughput.|$|E
40|$|This paper {{proposes a}} linearized load model to {{evaluate}} the effect of <b>conservation</b> <b>voltage</b> <b>reduction</b> at a national level. In this model, the respective active and reactive linearizing parameters for active and reactive loads in a power system are estimated using energy management system (EMS) data resulting from conservation voltage reductions. To verify {{the validity of the}} linearized load model, PSS/E simulations were conducted for a test power system. Given that conservation voltage reductions are usually executed in the range of 2. 0 %– 5. 0 %, the proposed model was found to be sufficient to accurately evaluate the effect of <b>conservation</b> <b>voltage</b> <b>reduction.</b> Additionally, Korean EMS data were used to estimate the linearizing parameters for aggregated loads in an actual power system...|$|E
40|$|Reducing voltage {{to reduce}} energy consumption, {{referred}} to as <b>conservation</b> <b>voltage</b> <b>reduction</b> (CVR), can lead to energy savings. Calculating the effects of reducing voltage requires accurate load models. This paper investigates a load-voltage dependency factor that can be measured via field experiments using common existing instrumentation. A relationship between the load-voltage dependency factor {{and the percentage of}} the load that is constant impedance and the percentage that is constant power is presented. A new coordinated control algorithm using the load-voltage dependency factor measured by the field experiments is proposed. Parametric studies are presented which compare CVR with coordinated control versus traditional control. Across the two model comparisons of minimizing energy consumption, the coordinated control for <b>conservation</b> <b>voltage</b> <b>reduction</b> showed significant energy reduction over local control...|$|E
40|$|As {{solar energy}} {{continues}} to increase in the current power grid, the reac-tive power support capability from photovoltaic grid-tie inverters {{may be used to}} regulate feeder voltage and reduce system losses on medium- and low-voltage distribution systems. The focus of this thesis is to develop a smart-grid-enabled control algorithm that will determine the amount of re-active power injection or absorption required at each node to minimize the deviation from the control voltage level. Once the voltage level is achieved, implementing <b>conservation</b> of <b>voltage</b> <b>reduction</b> (CVR) further benefits the system by increasing energy savings. Generally, reactive power support oc-curs at the substation level, whereas with the communication advantages and system feedback provided by smart-grid devices such as residential smart me-ters, it facilitates an extensive reactive power support scheme that reaches {{all the way to the}} end-users. The method is tested on a modified IEEE 13 node feeder system assumin...|$|R
40|$|<b>Conservation</b> by <b>Voltage</b> <b>Reduction</b> (CVR) is the {{implementation}} of a distribution voltage strategy whereby all distribution voltages are lowered to the minimum allowed by the equipment manufacturer. This strategy is rooted in the fact that many loads consume less power when they are fed with a voltage lower than nominal. Electric utility companies consider CVR as a potential solution for managing power in distribution networks. However, a difficult challenge is to keep end-of-line (EOL) voltages within an acceptable range of the ANSI Standard C 84. 1. Therefore, to achieve maximum benefit from CVR, electric utilities should be able to regulate residential voltages depending on load requirements. Hence, {{there is a need for}} a local solution which can regulate residential voltage levels from the first customer on the distribution feeder until the EOL of the distribution network. Such a solution will not only provide flexibility to electric utilities for better control over residential voltages but it can also maximize the benefits from CVR. The goal of this research is to develop a Residential Static Var Compensator (RSVC) that will allow electric utility companies to develop strategies for CVR and other applications. The proposed RSVC is in fact a reactive power compensator that can regulate a residential load voltage with a fixed capacitor in shunt with a reactor controlled by two bidirectional switches. The two switches are turned on and off in a complementary manner using a pulse-width modulation (PWM) technique that allows the reactor to function as a continuously-variable inductor. The proposed RSVC has several advantages compared to a conventional thyristor-based static var compensator (SVC), such as a quasi-sinusoidal inductor current, sub-cycle reactive power controllability, lower footprint for reactive components, and its realization as a single-phase device...|$|R
5000|$|<b>Voltage</b> <b>reduction</b> dual-voltage CPUs, dynamic voltage scaling, undervolting, etc.|$|R
40|$|With {{growth in}} demand for {{electricity}} within Australian homes since 1980, the necessity to conserve and reduce overall energy consumption has become evident. <b>Conservation</b> <b>Voltage</b> <b>Reduction</b> is a heavily researched and tested technique, implemented to reduce peak demand and energy consumption in order to counter the growing costs to the consumer and minimize the pollution produced from generating the electricity itself. By reducing the supply voltage within the lower region of regulatory limits, some common household appliances are able to continue operating as the manufacturer designed, whilst consuming less energy. Through physical testing, utilizing a power meter and variable transformer, {{it was discovered that}} constant resistive devices, such as the kettle, provided the greatest reduction in energy consumption, followed by constant current devices such as Microwaves and LED lights. Constant power and energy devices did not provide any increase in efficiency or reduction in energy consumption, {{due to the nature of}} the device and feedback control mechanisms. By implementing <b>Conservation</b> <b>Voltage</b> <b>Reduction,</b> constant resistance and current devices are able to consume less energy, and when adopted on a large scale by thousands of homes, a quantifiable reduction in energy; hence a reduced consumption of fossil fuels can be obtained...|$|E
40|$|The main {{topic of}} this {{research}} is the efficient operation of a modernized distribution grid from both the customer side and utility side. For the customer side, this dissertation discusses the planning and operation of a customer with multiple demand response programs, energy storage systems and distributed generators; for the utility side, this dissertation addresses the implementation and assessment of voltage/VAR control and <b>conservation</b> <b>voltage</b> <b>reduction</b> in a distribution grid with distributed generators. The objectives {{of this research}} are as follows: (1) to develop methods to assist customers to select appropriate demand response programs considering the integration of energy storage systems and DGs, and perform corresponding energy management including dispatches of loads, energy storage systems, and DGs; (2) to develop stochastic voltage/VAR control techniques for distribution grids with renewable DGs; (3) to develop optimization and validation methods for the planning of integration of renewable DGs to assist the implementation of voltage/VAR control; and (4) to develop techniques to assess load-reduction effects of voltage/VAR control and <b>conservation</b> <b>voltage</b> <b>reduction.</b> In this dissertation, a two-stage co-optimization method for the planning and energy management of a customer with demand response programs is proposed. The first level is to optimally select suitable demand response programs to join and integrate batteries, and the second level is to schedule the dispatches of loads, batteries and fossil-fired backup generators. The proposed method considers various demand response programs, demand scenarios and customer types. It can provide guidance to a customer to make the most beneficial decisions in an electricity market with multiple demand response programs. For the implementation of voltage/VAR control, this dissertation proposes a stochastic rolling horizon optimization-based method to conduct optimal dispatches of voltage/VAR control devices such as on-load tap changers and capacitor banks. The uncertainties of renewable DG output are taken into account by the stochastic formulation and the generated scenarios. The exponential load models are applied to capture the load behaviors of various types of customers. A new method to simultaneously consider the integration of DGs and the implementation of voltage/VAR control is also developed. The proposed method includes both solution and validation stages. The planning problem is formulated as a bi-level stochastic program. The solution stage is based on sample average approximation (SAA), and the validation stage is based on multiple replication procedure (MRP) to test the robustness of the sample average approximation solutions of the stochastic program. This research applies big data-driven analytics and load modeling techniques to propose two novel methodologies to assess the load-reduction effects of <b>conservation</b> <b>voltage</b> <b>reduction.</b> The proposed methods can be used to assist utilities to select preferable feeders to implement <b>conservation</b> <b>voltage</b> <b>reduction.</b> Ph. D...|$|E
40|$|This paper {{presents}} a fuzzy inference system for integrated volt/var control (VVC) in distribution substations. The purpose is go forward to automation distribution applying <b>conservation</b> <b>voltage</b> <b>reduction</b> (CVR) in isolated power systems where control capabilities are limited. A fuzzy controller has been designed. Working as an on-line tool, {{it has been}} tested under real conditions and it has managed the operation during a whole day in a distribution substation. Within the limits of control capabilities of the system, the controller maintained successfully an acceptable voltage profile, power factor values over 0, 98 and it has ostensibly improved the performance given by an optimal power flow based automation system. CVR savings during the test are evaluated and the aim to integrate it in the VVC is presented. Comment: arXiv admin note: substantial text overlap with arXiv: 1401. 163...|$|E
40|$|Water {{electrolysis}} {{was carried}} out galvanostatically under a super gravity field. The relationships of cell voltage, ohmic <b>voltage</b> drop <b>reduction</b> and overpotential reduction with gravity coefficient (G) and current densities were studied. It was found that water electrolysis was noticeably enhanced by the super gravity field. Good linear relationships between cell voltage (U) and logarithm of G can be obtained at all current densities. Large cell <b>voltage</b> <b>reduction</b> was achieved under the super gravity field, especially under higher gravity and at higher current densities. Energy savings were about 9 - 17 % at 0. 5 A cm(- 2) under the super gravity field. The cell <b>voltage</b> <b>reduction</b> was ascribed to ohmic <b>voltage</b> drop <b>reduction</b> and overpotential reduction. The share of ohmic <b>voltage</b> drop <b>reduction</b> (i Delta R(G)) in cell <b>voltage</b> <b>reduction</b> (Delta U(G)) was higher than 70 % at all current densities. At constant cell voltage, the rate of hydrogen produced under super gravity field increased noticeably compared to that under normal gravity condition. (C) 2010 Professor T. Nejat Veziroglu. Published by Elsevier Ltd. All rights reserved...|$|R
3000|$|Moreover, the {{significance}} of threshold <b>voltage</b> <b>reduction</b> induced by interface trap recovery and electron detrapping is also proportional to the initial threshold voltage magnitude [29], i.e., the higher the initial threshold voltage is, the faster the interface trap recovery and electron detrapping occur and hence the larger threshold <b>voltage</b> <b>reduction</b> will be. Hence, we set the generated retention noise approximately scale K [...]...|$|R
3000|$|Reducing the {{supplied}} voltage. The renowned {{technique that}} {{has been applied to}} system components (e.g. CPUs, cache memories) is called Supply <b>Voltage</b> <b>Reduction</b> (SVR), [...]...|$|R
40|$|Project (M. S., Electrical and Electronic Engineering)) [...] California State University, Sacramento, 2013. In {{order to}} develop an {{estimate}} of the benefits of <b>Conservation</b> <b>Voltage</b> <b>Reduction</b> (CVR) in the distribution system, the composite characteristics of system loads have been extracted from measurements of electrical quantities at the main substation. Real and reactive power measurements at the secondary bus of the substation are used as inputs to the parameter identification procedure based on the least square optimization approach for finding aggregated ZIP load model parameters. This knowledge is further used in finding a quantitative estimation approach for predicting the effectiveness of substation transformer tap changes in reducing total power demand during different distribution system load conditions. The proposed algorithm is implemented on the IEEE 34 bus test system and the results are demonstrated. It is shown that the method can predict the effectiveness of CVR with acceptable accuracy. Electrical and Electronic Engineerin...|$|E
40|$|The {{emerging}} {{smart grid}} paradigm enables more {{efficient use of}} energy through optimizing the local grid operation. <b>Conservation</b> <b>Voltage</b> <b>Reduction</b> (CVR) is an application which aims at reducing the power consumption by decreasing the voltage level. Another important application is the Volt Ampere Reactive (VAR) control which aims at flattening the voltage profile and improving the power factor, which reduces the losses and eventually reduces the demand. PV solar systems can provide not only active power but also reactive power and hence, they can be exploited by the VAR Control application. Optimized Volt- VAR Control (OVVC) {{is a combination of}} these two applications that seeks an optimal coordination of different units to improve the performance of the power grid and save energy. In this paper, we use a co-simulation approach to explore closed-loop CVR and OVVC smart grid applications in a distribution grid. SGsim is a co-simulation framework consisting mainly of the network simulator OMNeT++ and the power grid simulator OpenDSS...|$|E
40|$|In {{this paper}} we propose a new method to {{evaluate}} the effects of nationwide <b>conservation</b> <b>voltage</b> <b>reduction</b> (CVR) on peak-load shaving, using substation operating results management system (SOMAS) data. Its evaluation is based on a national CVR factor, which is defined as the weighted average of CVR factors associated with all transformer banks and weighting coefficients are determined by the reconstructed loads corresponding to each transformer bank. To make use of the data resulting from nationwide CVR without installing additional measuring devices, we adopt a linearized static-load model with a linearizing parameter. SOMAS data are used to evaluate the effects of nationwide CVR on peak-load shaving in the Korean power system. Evaluation results show that the national CVR factor of the Korean power system has small values in the summer season and large values in the winter season. This means that the effect of nationwide CVR on peak-load shaving in the Korean power system presents stronger benefits during winter months...|$|E
30|$|One of {{the main}} {{objectives}} in this work {{is to reduce the}} power consumption of the DAC. Power saving is usually achieved by reducing the supply voltage. While supply <b>voltage</b> <b>reduction</b> is currently limited to some tenths of volts, favorably, circuits operating with currents as low as femtoamperes are reported so far [3, 4, 5, 6, 7, 8]. Comparing limited supply <b>voltage</b> <b>reduction</b> capability with the remarkably large reduction factor obtainable for the currents, it is concluded that by reducing the circuit's currents, much smaller power consumption can be achieved. Therefore, the current reduction approach promises extra significant power-saving orders.|$|R
5000|$|The company {{relocated}} to Laguna Beach, CA, and in February 2015 exited stealth mode and announced its technology. [...] By that time, {{the company had}} filed 46 patents for its capacitive <b>voltage</b> <b>reduction</b> technology, which it called Muxcapacitor.|$|R
3000|$|According to Eq. (2), the {{reduction}} in the threshold voltage leads to an improvement in the gate delay. The threshold <b>voltage</b> <b>reduction</b> is accompanied by a relative increase in drain saturation current due to the increase in gate overdrive voltage, V [...]...|$|R
40|$|This paper {{presents}} a systematic framework {{to evaluate the}} performance of <b>conservation</b> <b>voltage</b> <b>reduction</b> (CVR) by determining suitable substations for CVR in operations planning. Existing CVR planning practice generally only focuses on the energy saving aspect without taking other underlying attributes into account, i. e., network topology and reduced voltage effects on other substations. To secure the desired operating reserve and avoid any adverse impacts, these attributes should be considered for implementing CVR more effectively. This research develops a practical decision-making framework based on the analytic hierarchy process (AHP) to quantify several of the aforementioned attributes. Candidate substations for CVR deployment are prioritized such that performances are compared in terms of {{power transfer distribution factor}} (PTDF), voltage sensitivity factor (VSF), and CVR factor. In addition, to meet a specified reserve requirement, an integer programming approach is adopted to select potential substations for CVR implementations. Case studies for a Korean electric power system under diverse operating conditions are performed to demonstrate the effectiveness of the proposed method...|$|E
40|$|The {{introduction}} of `Smart grid' technologies in the electricity supply industry has attracted new attention to <b>Conservation</b> <b>Voltage</b> <b>Reduction</b> (CVR). CVR {{is a method}} that aims to save energy by reducing the voltage level of the electrical distribution network. However, not all devices consume less electricity when exposed to lower voltage levels; some devices keep energy consumption constant by extending their operating time, while others increase the current, leading to higher line losses. This paper describes a model designed to calculate the energy savings that can be reached {{through the use of}} CVR. The model has been applied to the Australian residential sector, showing that 0. 4 % of energy savings can be obtained for 1. 0 % of voltage reduction. Besides a description of the model and the results, the paper contains a thorough sensitivity analysis. Furthermore, we present a simple but effective formula to predict the energy savings by CVR...|$|E
40|$|In this paper, a <b>conservation</b> <b>voltage</b> <b>reduction</b> (CVR) {{scheme is}} {{proposed}} for a distribution system with intermittent distributed generators (DGs), such as photovoltaics and wind turbines. The CVR is a scheme {{designed to reduce}} energy consumption by lowering the voltages supplied to customers. Therefore, an unexpected under-voltage violation can occur due to the variation of active power output from the intermittent DGs. In order to prevent the under-voltage violation and improve the CVR effect, a new reactive power controller which complies with the IEEE Std. 1547 TM, and a parameter determination method for the controller are proposed. In addition, an optimal power flow (OPF) problem to determine references for the resources of CVR is formulated with consideration of the intermittent DGs. The proposed method is validated using a modified IEEE 123 -node test feeder. With the proposed method, the voltages of the test system are maintained to be greater than the lower bound, even though the active power outputs of the DGs are varied. Moreover, the CVR effect is improved compared to that used with the conventional reactive power control methods...|$|E
50|$|Semitrex is an Irvine, California-based fabless {{semiconductor}} {{company that}} designs chips for improved power management. The company's patented capacitive <b>voltage</b> <b>reduction</b> technology uses cascading capacitors to store power and convert voltages on chips, reducing the energy consumption of electronic devices.|$|R
40|$|Context of the study. Energy {{consumption}} and battery lifetime are nowadays major constraints {{in the design}} of mobile embedded systems. Amongst all hardware and software techniques aimed at reducing energy consumption, supply <b>voltage</b> <b>reduction,</b> and hence reduction of CPU speed, is particularly effective. This i...|$|R
50|$|Even some {{resistive}} loads {{provide only}} short-term benefits. A {{phenomenon known as}} load diversity {{plays a role in}} <b>voltage</b> <b>reduction</b> and can counteract its effects on occasion. The concept of load diversity can most easily be explained with an example. In your neighborhood, it is unlikely that all of the homes' water heaters are on at the same time. Particularly during non-hot water usage hours (morning and evening showers), when your hot water heater is on, your neighbor's may be off. Due to the distributed and noncoincident nature of these loads, the aggregate peak can remain relatively constant. However, if the voltage is reduced to all of the resistive elements in the water heaters, the elements {{will not be able to}} heat the water as quickly. While an immediate reduction in the power demand will be recognized upon initiating <b>voltage</b> <b>reduction,</b> over time water heaters will need to be on longer to achieve the thermostat-set water temperature. Thus, more water heaters will be on at the same time. This will cause the aggregate peak to increase substantially. Therefore, with respect to thermostat controlled resistive loads the benefits of <b>voltage</b> <b>reduction</b> can be short lived, and may occasionally end up increasing the aggregate load demand.|$|R
40|$|Volt/Var Optimization (VVO) {{technology}} {{helps to}} ensure that power is delivered to customers at optimal power factor to minimize line loss and maintain acceptable voltage at all points along the distribution feeder. Meanwhile, applying <b>Conservation</b> <b>Voltage</b> <b>Reduction</b> (CVR) will lower the customer's peak demand to conserve more energy. Advanced Metering Infrastructure (AMI) realizes the voltage monitoring and management at customers' side. This paper presents an VVO approach associated with CVR using prime-dual interior point method (PDIPM) applied on a system model based with AMI data, to make customers' voltages achieve the lower portion of the accepted range and meanwhile minimize the sum of power loss and power demand. Compared to the widely used algorithm, i. e. Genetic Algorithm (GA), PDIPM has an obvious advantage at better operation regularity of capacitors and more energy saving. IEEE 33 bus test system, {{as well as a}} practical distribution network is adopted for the validation and comparison. The results show that PDIPM is stable and effective for VVO application in power industry. Department of Electrical Engineerin...|$|E
40|$|The {{integration}} of distributed energy generation systems {{has begun to}} impact the operation of distribution feeders within the balancing areas of numerous electrical utilities. Battery energy storage systems {{may be used to}} facilitate greater {{integration of}} renewable energy generation. This paper describes a method for determining the power and energy capacities a battery energy storage system would need in order to accommodate a particular photovoltaic penetration level within a distribution feeder, or conversely, the amount of photovoltaic that could be installed on a feeder with a minimal investment in power and energy battery energy storage system (BESS) capacities. This method determines the BESS capacities required to compensate both intra-hour and inter-hour load and photovoltaic fluctuations to achieve a flat feeder power profile. By managing the feeder power, the voltage drop along the length of feeder may be managed, thereby mitigating the voltage fluctuation induced by the stochastic nature of both renewables generation and load. Doing so facilitates system benefits, such as <b>conservation</b> <b>voltage</b> <b>reduction,</b> fewer operations of load tap changers, and voltage regulators, and allows for deferment of capital expenditures...|$|E
40|$|This paper {{proposes a}} {{distributed}} reactive power control based approach to deploy Volt/VAr optimization (VVO) / <b>Conservation</b> <b>Voltage</b> <b>Reduction</b> (CVR) algorithm in a distribution network with distributed generations (DG) units and distribution static synchronous compensators (D-STATCOM). A three-phase VVO/CVR problem is formulated and the reactive power references of D-STATCOMs and DGs are determined in a distributed way by decomposing the VVO/CVR problem into voltage and reactive power control. The main {{purpose is to}} determine the coordination between voltage regulator (VR) and reactive power sources (Capacitors, D-STATCOMs and DGs) based on VVO/CVR. The study shows that the reactive power injection capability of DG units may {{play an important role in}} VVO/CVR. In addition, it is shown that the coordination of VR and reactive power sources does not only save more energy and power but also reduces the power losses. Moreover, the proposed VVO/CVR algorithm reduces the computational burden and finds fast solutions. To illustrate the effectiveness of the proposed method, the VVO/CVR is performed on the IEEE 13 -node test system feeder considering unbalanced loading and line configurations. The tests are performed taking the practical voltage-dependent load modeling and different customer types into consideration to improve accuracy...|$|E
3000|$|... (lattice oxygen), {{which is}} {{beneficial}} to the reset operation from LRS to HRS with rupture of conductive filament (Fig.  9 d). Above all, the oxygen reservoir effect of TiN bottom electrode contributes the forming <b>voltage</b> <b>reduction</b> as well as better set/reset voltage variation [1, 29, 36].|$|R
40|$|A new {{generalized}} space vector modulator for cascaded multilevel converters is presented, featuring centralized control, {{fault tolerant}} and common mode <b>voltage</b> <b>reduction</b> capabilities. The SVPWM technique {{is based on}} the redundancy properties inherent in multilevel modulation schemes and is validated through a case study. Simulation and experimental results are presented...|$|R
40|$|NERC) Operating Committee {{prepared}} {{this review}} of selected 1999 bulk electric system disturbances, unusual occurrences, demand and <b>voltage</b> <b>reductions,</b> and public appeals. NERC has published its findings on bulk electric system disturbances, unusual occurrences, demand and <b>voltage</b> <b>reductions,</b> and public appeals since 1979. The objectives {{of this report}} include: Sharing the experiences and lessons that North American utilities have learned. Suggesting ways that utilities can apply the NERC Operating Policies to their operations and the NERC Planning Policies to their planning. Determining if these Policies adequately address the normal and emergency conditions that can occur on the bulk electric systems. The Working Group appreciates the assistance received from the utilities whose disturbances are analyzed in this review. Please address questions {{on the details of}} the analyses in this report to NERC at 609 - 452 - 8060. 2 NERCSystem Disturbances ⎯ 199...|$|R
40|$|This paper {{describes}} {{a method to}} estimate <b>conservation</b> <b>voltage</b> <b>reduction</b> (CVR) factors using data measured in power distribution systems. A direct method is proposed to estimate CVR factors using only data measured {{at the moment of}} the transformer tap change. The mean absolute deviation (MAD) direct method is proposed to consider direct methods and load variations. The proposed methods do not necessitate intentional tap changes for testing purposes. Instead, the voltage and load changes that occur when the tap changes, for voltage regulation purposes, are measured and utilized in the CVR factor calculation. The proposed methods were tested using data obtained from the Korea Electric Power Corporation (KEPCO) system, and the results revealed that CVR factors for both active power and reactive power could be estimated using data measured in power distribution systems. Results of the CVR factor estimation for the active power revealed that the highest CVR factors occurred in winter, during which a large quantity of heating loads exist. In addition, the estimated CVR factors for the reactive power were higher than the estimated CVR factors for the active power because reactive power is more sensitive to voltage changes...|$|E