0|2667|Public
40|$|Tumour {{heterogeneity}} {{is a key}} hurdle for {{the effective}} treatment of cancer using oncolytic viruses (OVs). A {{better understanding of the}} pathways involved in delineating tumour cell resistance and hypersensitivity to OVs is critical in order to guide the development of new therapeutic strategies to enhance OVs. In this thesis, I performed a comparative genetic and epigenetic study of the murine OV-resistant colon cancer cell line CT 26. WT and its hypersensitive subclone CT 26. lacZ. This study led to the identification of retroviral insertion sites in AKAP 7 and TP 53 RK genes, that are potentially involved in conveying sensitivity to infection by OVs and the dysregulation of the interferon antiviral response in the CT 26. lacZ cell line. Gene overexpression and gene silencing experiments suggest a functional role of these proteins in <b>controlling</b> <b>viral</b> <b>growth.</b> Further investigation of these genes and their relationship to antiviral response pathways is warranted and may lead to novel strategies for improving the therapeutic activity of OVs...|$|R
40|$|Coxsackievirus B 3 (CVB 3) {{is a small}} RNA virus {{associated}} with diseases such as myocarditis, meningitis, and pancreatitis. We have previously demonstrated that proteasome inhibition reduces CVB 3 replication and attenuates virus-induced myocarditis. However, the underlying mechanisms by which the ubiquitin/proteasome system regulates CVB replication remain unclear. In this study, we investigated the role of REG, {{a member of the}} 11 S proteasome activator, in CVB 3 replication. We showed that overexpression of REG promoted CVB 3 replication but that knockdown of REG led to reduced CVB 3 replication. We further demonstrated that REG-mediated p 53 proteolysis contributes, as least in part, to the proviral function of REG. Although total protein levels of REG remained unaltered after CVB 3 infection, virus infection induced a redistribution of REG from the nucleus to the cytoplasm, rendering an opportunity for a direct interaction of REG with viral proteins and/or host proteins (e. g., p 53), which <b>controls</b> <b>viral</b> <b>growth</b> and thereby enhances viral infectivity. Further analyses suggested a potential modification of REG by SUMO following CVB 3 infection, which was verified by both in vitro and in vivo sumoylation assays. Sumoylation of REG {{may play a role in}} its nuclear export during CVB 3 infection. Taken together, our results present the first evidence that the host REG pathway is utilized and modified during CVB 3 infection to promote efficient viral replication. Viruses often adapt to the existing host cellular machinery t...|$|R
40|$|This new assay of viral cell-mediated {{immunity}} is sensitive, reproducible, {{and in many}} ways resembles the in vivo state. The spread of herpes simplex virus between adjacent monolayer cells was inhibited in the presence of spleen cells from guinea pigs sensitized to that virus. This in vitro <b>control</b> of <b>viral</b> <b>growth</b> was quantified by determining plaque size in monolayers to which were added sensitized spleen cells as opposed to nonsensitized or no spleen cells. The simple measurement of plaque size reduction as an in vitro test of viral {{cell-mediated immunity}} is described. In addition to correlating highly with skin testing and macrophage migration inhibition as a test of viral cell-mediated immunity, the ability of sensitized spleen cells to reduce plaque size developed by day 7, paralleling the onset of delayed cutaneous hypersensitivity. The specificity of this lymphocyte-mediated interaction was demonstrated by the inability of herpes simplex virus-sensitized spleen cells to alter the growth of vaccinia virus in cell culture. A ratio of sensitized spleen cells to monolayer cells of 6 : 1 resulted in significant plaque size reduction on both HEp- 2 and conjunctiva monolayers. The data presented demonstrate the potential usefulness of plaque size reduction as a technically simple, specific, and more direct measure of cellular antiviral activity...|$|R
40|$|Influenza is an {{infectious}} disease that primarily attacks the respiratory system. Innate immunity provides both {{a very early}} defense to influenza virus invasion and an effective <b>control</b> of <b>viral</b> <b>growth.</b> Previous modelling studies of virus-innate immune response interactions have focused on infection with a single virus and, while improving our understanding of viral and immune dynamics, {{have been unable to}} effectively evaluate the relative feasibility of different hypothesised mechanisms of antiviral immunity. In recent experiments, we have applied consecutive exposures to different virus strains in a ferret model, and demonstrated that viruses differed in their ability to induce a state of temporary immunity or viral interference capable of modifying the infection kinetics of the subsequent exposure. These results imply that virus-induced early immune responses may be responsible for the observed viral hierarchy. Here we introduce and analyse a family of within-host models of re-infection viral kinetics which allow for different viruses to stimulate the innate immune response to different degrees. The proposed models differ in their hypothesised mechanisms of action of the non-specific innate immune response. We compare these alternative models in terms of their abilities to reproduce the re-exposure data. Our results show that 1) a model with <b>viral</b> <b>control</b> mediated solely by a virus-resistant state, as commonly considered in the literature, is not able to reproduce the observed viral hierarchy; 2) the synchronised and desynchronised behaviour of consecutive virus infections is highly dependent upon the interval between primary virus and challenge virus exposures and is consistent with virus-dependent stimulation of the innate immune response. Our study provides the first mechanistic explanation for the recently observed influenza viral hierarchies and demonstrates the importance of understanding the host response to multi-strain viral infections. Re-exposure experiments provide a new paradigm in which to study the immune response to influenza and its role in <b>viral</b> <b>control.</b> [ABSTRACT FROM AUTHOR] Copyright of PLoS Computational Biology is the property of Public Library of Science and its content may not be copied or emailed to multiple sites or posted to a listserv without the copyright holder's express written permission. However, users may print, download, or email articles for individual use. This abstract may be abridged. No warranty is given about the accuracy of the copy. Users should refer to the original published version of the material for the full abstract. (Copyright applies to all Abstracts. ...|$|R
40|$|AbstractHuman {{immunodeficiency}} virus type 1 (HIV- 1) Tat-mediatedtrans-activation requires the structural integrity of TAR RNA and the cooperative interaction of human host cell proteins. The TAR domain, minimally required fortatresponse, includes the Tat binding pyrimidine bulge, the TAR RNA upper stem, and the loop sequences. However, {{little is known}} about the significance of the 5 ′-stem structure of TAR in the regulation of <b>viral</b> <b>growth.</b> We designed <b>viral</b> mutations, specifically in the TAR RNA lower stem structure, and studied their effects on the kinetics of <b>viral</b> <b>growth</b> in T-lymphocyte cell lines and in activated human peripheral blood mononuclear cells. Mutations that destabilized the lower TAR stem structure inhibited <b>viral</b> <b>growth</b> to various degrees in different[formula]T-cells. These results suggest that the structural integrity of the lower stem structure of TAR plays an important role in <b>viral</b> <b>growth,</b> presumably by binding to specific host cell proteins that stabilize Tat–TAR interactions...|$|R
40|$|Abstract Background Mathematical {{modeling}} {{is important}} to provide insight in the complicated pathway of RNA silencing. RNA silencing is an RNA based mechanism that is widely used by eukaryotes to fight viruses, and to control gene expression. Results We here present the first mathematical model that combines <b>viral</b> <b>growth</b> with RNA silencing. The model involves a plus-strand RNA virus that replicates through a double-strand RNA intermediate. The model of the RNA silencing pathway consists of cleavage of viral RNA into siRNA by Dicer, target cleavage of viral RNA via the RISC complex, and a secondary response. We found that, depending {{on the strength of}} the silencing response, different <b>viral</b> <b>growth</b> patterns can occur. Silencing can decrease <b>viral</b> <b>growth,</b> cause oscillations, or clear the virus completely. Our model can explain various observed phenomena, even when they seem contradictory at first: the diverse responses to the removal of RNA dependent RNA polymerase; different <b>viral</b> <b>growth</b> curves; and the great diversity in observed siRNA ratios. Conclusion The model presented here is an important step in the understanding of the natural functioning of RNA silencing in viral infections. </p...|$|R
40|$|Viruses are {{obligatory}} intracellular pathogens requiring host machinery {{for survival}} and reproduction. Differing from living organisms, which can grow where nutrients are available, viruses absolutely require hijacking of host machineries {{to complete their}} life cycle. Enveloped viruses evolved to have dedicated strategies to passively sense environmental cues to ensure that initiation of infection occurs at the correct moment and place. One general strategy used by enveloped viruses is to precisely control activation of their envelope glycoprotein just prior entry into host cells. Influenza A virus (AIV) is the causative agent of influenza illness and causes both economical and public health problems globally and annually. As a successful pathogen infecting {{a wide range of}} animals, IAV excels in sensing the environment to ensure efficient infection by employing two sequential activating steps during viral entry: proteolytic cleavage for priming of the hemagglutinin (HA) and low-pH-triggered conformational changes allowing release of the fusion peptide. Proteolytic cleavage of influenza HA <b>controls</b> <b>viral</b> pathogenesis by influencing <b>viral</b> <b>growth</b> rate and <b>viral</b> tropism. The primary sequence and tertiary structure of the HA determine the overall properties of HA activation and hence, viral pathogenesis. Mutations on the primary sequence of the HA cleavage site affect viral activation in two dimensions, 1) HA activation efficiency and 2) alteration in protease repertoire for HA activation. The former modulates <b>viral</b> <b>growth</b> kinetics and the later is important for viral tropism. Mutations that modifies HA tertiary structure also {{play an important role in}} viral activation, in particular virus growth. In this thesis, I describe three interrelated studies of mutations on primary and tertiary structure of HA and their consequence on HA cleavage and viral pathogenesis. These mutations also allow influenza virus to interact with prokaryotic pathogens and open up another dimension in virus-bacteria-host interactions and synergy. 2019 - 01 - 2...|$|R
40|$|International audiencePurpose: To {{investigate}} if amniotic membrane (AM) incubated with antivirals can inhibit <b>viral</b> <b>growth</b> in vitro. Methods: AM {{samples were}} incubated {{with a solution}} of acyclovir (ACV) or trifluridine (TFU). AM treated was placed onto a monolayers of Vero cells, a continuous cell line from monkey kidney, infected with Herpes Simplex Virus (HSV). <b>Viral</b> <b>growth</b> was assessed in comparison to control infected cells by direct examination with an inverted microscope at low magnification for the presence and extension of the typical cytopathic effect, or by estimation of viral genomes. Results: AM soaked in ACV or TFU inhibited significantly the development of HSV in cell cultures, based on the <b>viral</b> <b>growth</b> compared to <b>controls.</b> Non-treated AM did not significantly affect viral replication. Conclusions: Our preliminary in vitro data show that antiviral-treated amniotic membrane can inhibit viral replication. Therefore, it could {{be taken into consideration}} the possibility to combine the previously published anti-inflammatory properties of AM with the capability to absorb antivirals and sustain drug release...|$|R
40|$|Recombinants of oncogenic and nononcogenic avian {{leukosis}} viruses were tested for their oncogenic potential in chickens. The {{results indicate that}} at least two regions of the viral genome determine the oncogenic potential of these viruses. The first region contains sequences that <b>control</b> <b>viral</b> mRNA synthesis. These sequences determine the potential of a virus to induce a low incidence of lymphomas, carcinomas, chondrosarcomas, fibrosarcomas, and osteopetrosis. The second region lies outside the sequences that <b>control</b> <b>viral</b> mRNAs synthesis. These sequences determine the ability of a virus to induce a high incidence of lymphomas or osteopetrosis...|$|R
2500|$|Chronic {{hepatitis}} B management aims to <b>control</b> <b>viral</b> replication, {{which is}} correlated with progression of disease. There have been 7 drug treatments approved {{to date in}} the United States: ...|$|R
50|$|Complementing {{efforts to}} <b>control</b> <b>viral</b> replication, immunotherapies that may {{assist in the}} {{recovery}} of the immune system have been explored in past and ongoing trials, including IL-2 and IL-7.|$|R
5000|$|Chronic {{hepatitis}} B management aims to <b>control</b> <b>viral</b> replication, {{which is}} correlated with progression of disease. There have been 7 drug treatments approved {{to date in}} the United States: ...|$|R
25|$|Phylodynamic {{approaches}} {{have also been}} used to better understand viral transmission dynamics and spread within infected hosts. For example, phylodynamic studies {{have been used to}} infer the rate of <b>viral</b> <b>growth</b> within infected hosts and to argue for the occurrence of viral compartmentalization in hepatitis C infection.|$|R
40|$|The fate of {{herpes simplex}} virus (HSV) in the {{lymphocytes}} of patients with juvenile chronic arthritis (JCA) was studied by previously described methods. Lymphocytes isolated from blood and joint effusions of 18 patients with systemic JCA and 11 patients with pauciarticular JCA usually supported <b>viral</b> <b>growth</b> normally...|$|R
40|$|The APOBEC {{family of}} {{mammalian}} cytidine deaminases, such as APOBEC 3 G (hA 3 G), {{has been demonstrated}} {{to function as a}} host viral restriction factor against HIV- 1. hA 3 G has been shown to cause extensive G-to-A mutations in the HIV- 1 genome, which {{may play a role in}} viral restriction. To investigate the role of G-to-A mutations in HIV- 1 pathogenesis, we isolated, amplified, and sequenced HIV- 1 sequences (vif, gag, and env) from 29 therapy-naive HIV- 1 -infected individuals. The levels of G-to-A mutations correlated with the expression levels of hA 3 G in the vif (rho[*]=[*] 0. 438, p[*]=[*] 0. 041) and the env regions (rho[*]=[*] 0. 392, p[*]=[*] 0. 038), but not in the gag region (rho[*]=[*] 0. 131, p[*]=[*] 0. 582). There is no correlation between viral load and the level of G-to-A mutations in the vif (rho[*]=[*] 0. 144, p[*]=[*] 0. 522), env (rho[*]=[*] 0. 168, p[*]=[*] 0. 391), or gag regions (rho[*]=[*]− 0. 254, p[*]=[*] 0. 279). Taken together, these findings suggest that the hA 3 G-induced G-to-A mutations may not be the mechanism by which hA 3 G restricts or <b>controls</b> <b>viral</b> replication. Thus, hA 3 G might be restricting <b>viral</b> <b>growth</b> in infected individuals through a mechanism that is independent of the cytidine deaminase activities of hA 3 G...|$|R
40|$|Our {{previous}} studies with influenza A viruses {{indicated that the}} association of M 1 with viral RNA and nucleoprotein (NP) {{is required for the}} efficient formation of helical ribonucleoprotein (RNP) and for the nuclear export of RNPs. RNA-binding domains of M 1 map to the following two independent regions: a zinc finger motif at amino acid positions 148 to 162 and a series of basic amino acids (RKLKR) at amino acid positions 101 to 105. Altering the zinc finger motif of M 1 reduces <b>viral</b> <b>growth</b> slightly. A substitution of Ser for Arg at either position 101 or position 105 of the RKLKR domain partially reduces the nuclear export of RNP and viral replication. To further understand the role of the zinc finger motif and the RKLKR domain in viral assembly and replication, we introduced multiple mutations by using reverse genetics to modify these regions of the M gene of influenza virus A/WSN/ 33. Of multiple mutants analyzed, a double mutant, R 101 S-R 105 S, of RKLKR resulted in a temperature-sensitive phenotype. The R 101 S-R 105 S double mutant had a greatly reduced ratio of M 1 to NP in viral particles and a weaker binding of M 1 to RNPs. These results suggest that mutations can be introduced into the RKLKR domain to <b>control</b> <b>viral</b> replication...|$|R
40|$|This paper {{investigates the}} complex {{dynamics}} induced by antibody-dependent enhancement (ADE) in multiserotype disease models. ADE is {{the increase in}} <b>viral</b> <b>growth</b> rate {{in the presence of}} immunity due to a previous infection of a different serotype. The increased <b>viral</b> <b>growth</b> rate is thought to increase the infectivity of the secondary infectious class. In our models, ADE induces the onset of oscillations without external forcing. The oscillations in the infectious classes represent outbreaks of the disease. In this paper, we derive approximations of the ADE parameter needed to induce oscillations and analyze the associated bifurcations that separate the types of oscillations. We then investigate the stability of these dynamics by adding stochastic perturbations to the model. We also present a preliminary analysis of the effect of a single serotype vaccination in the model...|$|R
40|$|The host protein cyclophilin A (CypA) {{has been}} shown to be {{necessary}} for viral replication of several viruses, including human immunodeficiency virus and hepatitis C virus. Previous research done in the Geary laboratory, in collaboration with Pacific Northwest National Laboratory, reported that cyclophilin A remains highly associated with vaccinia virus virions even after successive rounds of purification. The goal of this research is to further investigate how cyclophilin A affects vaccinia virus replication in vitro using primary tissues harvested from CypA (-/-) knockout mice to determine the difference in <b>viral</b> <b>growth</b> kinetics. Results showed different <b>viral</b> <b>growth</b> kinetics in different primary tissues. These results indicate that vaccinia virus is capable of replicating in CypA negative cells, but that there may be tissue specific differences that could play a role in in vivo pathogenesis...|$|R
40|$|The {{cytomegalovirus}} UL 97 {{kinase inhibitor}} maribavir suppressed <b>viral</b> <b>growth</b> more effectively in lung fibroblasts than in skin fibroblasts, and some cellular kinase inhibitors enhanced its antiviral activity. These effects influence the phenotypic assay of drug susceptibility and suggest {{the possibility of}} therapeutically useful combinations of maribavir and cellular kinase inhibitors...|$|R
40|$|Calculation of {{pathogen}} {{growth rates}} {{is important in}} understanding {{the natural history of}} infection and effects of therapy. However, {{it is often difficult to}} estimate pathogen growth because patients are treated immediately upon the detection of infection, leaving only one nonzero untreated reading. Previous approaches have relied on the flawed assumption that pathogen loads just prior to detection are at the assay detection threshold. We have developed a novel method for estimating the pathogen growth rate from a single reading and investigated the initial growth of cytomegalovirus (CMV) in allogeneic hematopoietic stem cell transplant (HSCT) patients. We applied this approach to CMV viral loads measured at least weekly in 122 patients in the 3 months posttransplant. <b>Viral</b> <b>growth</b> rates were estimated by using a modeling approach that accounts for the viral load and the time since the last negative reading. <b>Viral</b> <b>growth</b> rates decreased rapidly within the first week, from 0. 72 /day (doubling time, 0. 96 day) at the point of reactivation to 0. 22 /day (doubling time, 3. 1 days) at 1 week. Results from this method correlated closely with a two-point regression analysis of a subset of 58 patients with detectable subthreshold viral loads immediately prior to overt reactivation. Patients with lymphocyte counts of ≥ 0. 5 × 109 /liter had significantly slower <b>viral</b> <b>growth</b> than patients with low lymphocyte counts (0. 612 /day versus 0. 325 /day,...|$|R
40|$|Lytic corynebacteriophage βhv 64 tox+ {{has been}} characterized, and methods for {{studying}} the expression of its tox+ gene in nontoxinogenic Corynebacterium diphtheriae strain C 7 s(−) tox− described. During one cycle of <b>viral</b> <b>growth</b> there was a 1 million-fold increase in extracellular toxin. Both {{the conditions of the}} experiment and the use of purified phage, free from toxin, support the conclusion that all of the toxin was newly formed. This toxin was immunochemically indistinguishable from standard toxin produced by the PW 8 r(Pdi) tox+ strain. Chloramphenicol was found to be an effective agent for synchronizing the initiation of <b>viral</b> <b>growth.</b> Once chloramphenicol was removed, intracellular toxin appeared and continued to increase throughout the latent period. Proflavine, added early in the latent period, blocked phage maturation without similarly affecting yields of toxin. Iron exerted a limited inhibitory effect on final toxin levels attained...|$|R
50|$|Susceptible {{cells are}} inoculated with serial {{logarithmic}} dilutions of samples in a 96-well plate. After <b>viral</b> <b>growth,</b> <b>viral</b> detection by IPA yields the infectious virus titer, expressed as tissue culture infectious dose (TCID50). This represents the dilution of a virus-containing sample at which {{half of a}} series of laboratory wells contain replicating viruses. This technique is a reliable method for the titration of human coronaviruses (HCoV) in biological samples (cells, tissues, or fluids). It is also reliable in the detection of antibodies to human cytomegalovirus.|$|R
30|$|Each {{compound}} {{was tested}} in triplicate and each experiment was repeated in three independent runs. Antiviral activity was expressed as {{the percentage of}} <b>viral</b> <b>growth</b> compared to the control and plotted against the compound concentration. Next, non-linear regression analysis was used to calculate the EC 50, using GraphPad Prism 5.03 using non-linear regression (GraphPad Software, San Diego, CA, USA).|$|R
40|$|We {{report a}} case of human tick-borne {{encephalitis}} (TBE) in which the TBE virus was isolated from the biting tick. <b>Viral</b> <b>growth</b> and sequence were characterized and {{compared with those of}} a reference strain. Virus isolation from ticks from patients with TBE may offer a new approach for studies of epidemiology and pathogenicity. 27434395 PMC 498219...|$|R
40|$|AbstractThe nuclear lamina {{is thought}} to be a steric barrier to the {{herpesvirus}} capsid. Disruption of the lamina accompanied by phosphorylation of lamina proteins is a conserved feature of herpesvirus infection. In HSV- 1 -infected cells, protein kinase C (PKC) alpha and delta isoforms are recruited to the nuclear membrane and PKC delta has been implicated in phosphorylation of emerin and lamin B. We tested two critical hypotheses about the mechanism and significance of lamina disruption. First, we show that chemical inhibition of all PKC isoforms reduced <b>viral</b> <b>growth</b> five-fold and inhibited capsid egress from the nucleus. However, specific inhibition of either conventional PKCs or PKC delta does not inhibit <b>viral</b> <b>growth.</b> Second, we show hyperphosphorylation of emerin by viral and cellular kinases is required for its disassociation from the lamina. These data support hypothesis that phosphorylation of lamina components mediates lamina disruption during HSV nuclear egress...|$|R
40|$|A sequence-specific {{ribozyme}} (M 1 GS RNA) {{derived from}} the catalytic RNA subunit of RNase P from Escherichia coli was used to target the overlapping exon 3 region of the mRNAs encoding the major transcription regulatory proteins IE 1 and IE 2 of human cytomegalovirus. A reduction of more than 80 % in the expression levels of IE 1 and IE 2 and a reduction of about 150 -fold in <b>viral</b> <b>growth</b> were observed in human cells that stably expressed the ribozyme. In contrast, a reduction of less than 10 % in the IE 1 /IE 2 expression and <b>viral</b> <b>growth</b> was observed in cells that either did not express the ribozyme or produced a “disabled” ribozyme that carried mutations that abolished its catalytic activity. Examination of the expression of several other viral early and late genes in the cells that expressed the M 1 GS ribozyme further revealed an overall reduction of at least 80 % in their expression. These {{results are consistent with}} the notion that the antiviral effects in these cells are {{due to the fact that}} the ribozyme specifically inhibits the expression of IE 1 and IE 2 and, consequently, abolishes the expression of viral early and late genes as well as <b>viral</b> <b>growth.</b> Our study is the first, to our knowledge, to use M 1 GS ribozyme for inhibiting human cytomegalovirus replication and demonstrates the utility of this ribozyme for antiviral applications...|$|R
40|$|Growth of Japanese {{encephalitis}} virus (JEV) in BHK- 21 cells was stimulated in {{the presence}} of 20 to 40 mug of the sodium salt of oleic acid (cis- 9 -octadecenoic acid, 9 - 18 : 1) per ml supplemented in Waymouth medium. The stimulatory effect of the salt was highest when 9 - 18 : 1 was added after adsorption of the virus. Study of the effect of other fatty acids on growth of JEV showed the following results: the longer the chain length of the saturated fatty acid salt, the higher the stimulatory effect on <b>viral</b> <b>growth.</b> In contrast, polyunsaturated fatty acids had an inhibitory effect on <b>viral</b> <b>growth.</b> The effect of isomeric cis-octadecenoic acids on <b>viral</b> <b>growth</b> was variable, depending upon the position of the double bond. The cis- 6 -octadecenoic acid had the highest inhibitory effect on growth of JEV compared to other isomeric octadecenoic acids. The sodium salt of (1 - 14 C) cis- 9 -octadecenoic acid (9 - 18 : 1, 20 mug/ml) was rapidly incorporated into control and JEV-infected cells. Specific radioactivity in phosphatidylcholine dropped 12 to 24 h after virus inoculation, whereas synthesis of phosphatidylethanolamine increased 12 to 24 h after virus inoculation in infected cells compared to uninfected cells. Results from these studies suggest that phospholipid metabolism of infected cells is markedly changed, which can be associated with altered fatty acid metabolism when using labeled 9 - 18 : 1 fatty acid as a marker...|$|R
40|$|T and NK cells {{collaborate}} to <b>control</b> <b>viral</b> infections, discerning minute {{differences between}} infected and uninfected cells. At the same time, viruses {{have evolved to}} escape this discovery. In {{this issue of the}} JCI, Ganem and colleagues show that Kaposi sarcoma–associated herpesvirus (KSHV) inhibits CD 1 d presentation to T cells. This novel immune evasion strategy highlights the importance of CD 1 d-restricted T cells in <b>controlling</b> <b>viral</b> infection and raises an interesting question: how do T cells recognize viruses in the context of CD 1 molecules that bind lipids? In the case of herpesviruses, alterations in endosomal trafficking might trigger redistribution of CD 1 /lipid complexes to cell surfaces, thereby promoting recognition by CD 1 d-restricted T cells...|$|R
25|$|Due to copper’s strong {{antimicrobial}} properties, copper fins can inhibit bacterial, fungal and <b>viral</b> <b>growths</b> that commonly {{build up}} in air conditioning systems. Hence, the surfaces of copper-based heat exchangers are cleaner {{for longer periods of}} time than heat exchangers made from other metals. This benefit offers a greatly expanded heat exchanger service life and contributes to improved air quality.|$|R
40|$|The role of {{the cell}} nucleus in the {{development}} of African swine fever virus in Vero cells has been studied. No <b>viral</b> <b>growth</b> could be detected in enucleated cells under conditions that allow normal development of Sindbis virus. Furthermore, African swine fever virus DNA synthesis was inhibited more than 95 % after infection of enucleated Vero cells as compared with normal cells...|$|R