12|1802|Public
50|$|WEAP: the Water Evaluation And Planning {{system is}} a Windows-based {{decision}} support system for integrated water resources management and policy analysis. WEAP is a model-building tool, used to create simulations of water demand, supply, runoff, evapotranspiration, infiltration, <b>crop</b> <b>irrigation</b> <b>requirements,</b> instream flow requirements, ecosystem services, groundwater and surface storage, reservoir operations, and pollution generation, treatment, discharge and instream water quality, all under scenarios of varying policy, hydrology, climate, land use, technology and socio-economic factors. WEAP can dynamically link to the USGS MODFLOW groundwater flow model and the US EPA QUAL2K surface water quality model.|$|E
40|$|Research Question – Objective - Hypothesis How does {{irrigation}} {{respond to}} the demands of <b>Crop</b> <b>Irrigation</b> <b>Requirements</b> under extreme hydrometeorological events? Implement a parameterization of irrigation into the land surface hydrology model VIC. Changes in evapotranspiration (ET) will be more conspicuous during dry years, highlighting the limiting role of soil moisture in the model...|$|E
40|$|This study evaluates {{climate change}} {{potential}} impacts on irrigated {{agriculture in the}} Guadiana river basin, {{in the south of}} Portugal, by running long-term soil water balance simulations using the ISAREG model and taking into consideration the maximum potential yield. The ISAREG simulations were focused in as et of the most locally representative crops to assess the evolution of net and total water requirements, considering a monthly time step for two 30 -year future periods, (2011 – 2040) and (2041 – 2070). Reference evapotranspiration was estimated using the temperature-based Hargreaves–Samani equation, and the simulations were performed using, as inputs, a combination of five climate change scenarios built using the Ensemble-Delta technique from CMIP 3 climate projections datasets to set different alternative climate change bracketing conditions for rainfall and air temperature. Water balance outputs for different climate scenarios were combined with four agricultural scenarios allowing for the estimation of total irrigation requirements. A general increase in <b>crop</b> <b>irrigation</b> <b>requirements</b> was estimated, mainly for those crops as maize, pasture, and orchards that are already big irrigation water consumers. Crops as olive groves and vineyards, well adapted to the Mediterranean conditions, show less sensitivity to climate change. The combined results of <b>crop</b> <b>irrigation</b> <b>requirements</b> for climate change and agricultural scenarios allow for the expectation of sustainability for the agricultural scenarios A and C, essentially defined by the complete use of the irrigation network and systems currently being constructed with the Alqueva project, but not for the ambitious irrigation area expanding scenario B...|$|E
40|$|Water {{scarcity}} is nowadays one of main world issues, {{and because}} of the climate change projections, it will be more important in future. The first step is to compute how much water crops need relative to climate conditions, in order to estimate the depth of storage water required to satisfy future agricultural water demand. In this study, starting from the computation of the regional map of reference evapotranspiration (ETo) zones from climate station data points, the impact of climate changes on <b>crop</b> <b>irrigation</b> <b>requirement</b> in Sardinia was estimated. The SIMETAW# model was used to quantify the actual and future <b>irrigation</b> <b>requirement</b> for some economically important crops for the region, considering an integrated approach that accounts for soil, <b>crop</b> management, and <b>irrigation</b> system data. The model provided detailed information about the crop water demand by the ETo zones. This approach presented possible adaptation strategies and demonstrated a sustainable way for water savings, improving irrigation management, and water productivity...|$|R
30|$|In {{the present}} study, {{estimation}} of {{crop water requirements}} {{in the study area}} for seven major crops was undertaken. Notwithstanding {{the fact that most of}} the agricultural practices in Ethiopia is rainfed, attempt has been made to assess <b>crop’s</b> <b>irrigation</b> water <b>requirements.</b> The following are discussion of this study for each crops using CROPWAT 8.0 model results.|$|R
40|$|Linear {{programming}} {{models are}} effective tools to support initial or periodic planning of agricultural enterprises, requiring, however, technical coefficients {{that can be}} determined using computer simulation models. This paper, presented in two parts, deals with the development, application and tests of a methodology and of a computational modeling tool to support planning of irrigated agriculture activities. Part I aimed at the development and application, including sensitivity analysis, of a multiyear linear programming model to optimize the financial return and water use, at farm level for Jaíba irrigation scheme, Minas Gerais State, Brazil, using data on <b>crop</b> <b>irrigation</b> <b>requirement</b> and yield, obtained from previous simulation with MCID model. The linear programming model outputted a crop pattern to which a maximum total net present value of R$ 372, 723. 00 for the four years period, was obtained. Constraints on monthly water availability, labor, land and production were critical in the optimal solution. In relation to the water use optimization, it was verified that an expressive reductions on the <b>irrigation</b> <b>requirements</b> may be achieved by small reductions on the maximum total net present value...|$|R
40|$|CROPWAT is a {{decision}} support system developed by the Land and Water Development Division of FAO. Its main functions are to calculate reference evapotranspiration, crop water requirements and <b>crop</b> <b>irrigation</b> <b>requirements.</b> The program allows choosing the cultivation site, culture, the cropping time, soil type and establishment of irrigation strategy. The ETo, irrigation schedule, the quantity of used water, {{the reduction of the}} yield according to the growth stage are calculated from the existing data in CLIMWAT-database. The region of Skopje was chosen for analysis of different irrigation strategies applied to tomato culture cultivated in an open field from 15 th of May to 3 rd of October. Three irrigation strategies were analyzed: without irrigation (rainfed), sprinkle irrigation when irrigation covers 100...|$|E
40|$|Abstract. Agriculture is {{the largest}} user {{of water on the}} planet with a 70 % of all {{freshwater}} withdrawals. Today the growing scarcity and competition for water among agricultural, industrial, commercial and residential sectors are pushing the water managers to allocate water more efficiently. In this scenario the use of methodologies and tools for better monitor and schedule the irrigation water for the agricultural sector are becoming relevant in the decision making process. In this paper two tools for calculating the <b>crop</b> <b>irrigation</b> <b>requirements</b> are proposed. The tools determinates, based on the complex relationships of the system soil-plant-atmosphere, the quantities and timing of water to be granted to meet the crops needs. The tools, developed by the Italian Institute for Agricultural Economics, are called Bilancio and MARSALa. Bilancio was realized for estimating the irrigation needs at parcel level for the Reclamation and Irrigation Consortia located in Southern Italy. MARSALa was developed for the estimation of the irrigation water consumption at farm level for the whole Italian farm universe by using, as a key source of information, the 2010 Italia...|$|E
40|$|Chickpea (Cicer arietinum L.) {{is one of}} {{the most}} {{important}} pulse crops in the world, cultivated on a wide range of environments. In Mediterranean regions, it is traditionally grown as a spring-sown rainfed crop, very dependent on rainfall. In this situation, supplemental irrigation can improve significantly the crop yield. The objective of this study was to evaluate the improvement on chickpea crop yield and water productivity (WP) of five chickpea varieties with supplemental irrigation, in the Mediterranean conditions, with both dry and wet years. Field tests were carried out over two cropping seasons, in Southern Portugal, using three kabuli-type and two desi-type chickpea varieties and four irrigation treatments, corresponding to 100, 50, 25 % of <b>crop</b> <b>irrigation</b> <b>requirements</b> (IR) and rainfed. The results show that all chickpea varieties responded to supplemental irrigation with the increase in grain and biomass yield. However, the magnitude of individual chickpea response depends on the year and the genotype. In 2009, a dry year, the highest WP values were attained at the 50 % IR treatment, whereas in 2010, a wet year, it was the rainfed treatment that showed the highest WP values. The Elixir variety showed the best grain yields and water productivity...|$|E
40|$|This paper {{analyzes}} {{whether it}} is advantageous to use compost instead of mineral fertilizer for lettuce production in the Yaoundé urban and peri-urban areas. The field survey results show that, compost use leads to higher crop yields and profits. Results from the Cobb-Douglas production function prove that compost use is statistically significant in explaining the yield variation of lettuce and more importantly, compost is the most productive input. Further results show that, compost use leads to lower the <b>crop's</b> <b>irrigation</b> <b>requirements</b> and to improve the organic matter content of the soil. Thus, in spite that compost farms are more labour demanding, the use of compost agronomically provides a lot of benefits to farmers living in the areas surrounding Yaoundé. Therefore, programs of popularization of this input to encourage its adoption should be highlighted among the top priorities in the agricultural policy of the Cameroon's government...|$|R
30|$|The <b>crop</b> <b>irrigation</b> {{and water}} <b>requirement</b> were {{simulated}} for each growth periods in various climatic conditions per each cropping seasons {{in order to}} quantify {{the amount of water}} consumed and needed to sustain crops growth for better production without and with the occurrence of rainfall.|$|R
40|$|This study {{presents}} a procedure for simultaneously addressing stochastic input demands and resource supplies for irrigated agriculture within a linear modeling framework. Specifically, {{the effect of}} stochastic <b>crop</b> net <b>irrigation</b> <b>requirements</b> and streamflow supplies on irrigation water management is examined. Irrigators pay a self-protection cost, in terms of water management decisions, to increase the probability that stochastic crop water demand is satisfied and anticipated water supply is available. Self-protection cost is lower when increasing the probability that anticipated water supplies are delivered, ceteris paribus, than when increasing {{the probability that the}} crop receives full net <b>irrigation</b> <b>requirement</b> in the study region. Resource /Energy Economics and Policy,...|$|R
40|$|This study evaluates {{climate change}} tendencies over several climatic {{parameters}} {{observed in the}} Guadiana river basin, south Portugal and its potential impacts on crop water and irrigation requirements. Parameters analyzed were annual rainfall and its seasonal distribution, temperature and evapotranspiration, collected from available regional meteorological data from a 46 -year period (1963 - 2009). The impacts of climate change in Guadiana basin’s irrigated crops was studied running long-term soil water balance simulations to evaluate the trend of irrigation water requirements considering maximum potential yield. The simulations were focused {{on a set of}} locally representative crops including wheat, maize, olive trees, vineyards and citrus. Climate data analysis showed an increase in average annual air temperature, and declining annual rainfall, with an increasing irregularity in monthly rainfall distribution. As a consequence of climate change, estimated <b>crop</b> <b>irrigation</b> <b>requirements</b> simulated in the considered period illustrate a rising tendency pattern, although different statistical significance was found amongst crops. Out of the studied crops, those with a typical high water demand, such as maize, and crops depending more directly on soil water content accumulated from rainfall during the winter season, such as wheat, both show a more significant tendency to increase their irrigation demands, while crops well adapted to the Mediterranean climate, such as olive trees, remained more conservative in their future irrigation water demands...|$|E
40|$|Hot pepper (Capsicum annuum L.) is an irrigated, {{high value}} cash <b>crop.</b> <b>Irrigation</b> <b>requirements</b> can be {{estimated}} following a FAO crop factor approach, using information on basal crop coefficients (Kcb), crop coefficients (Kc) and duration of crop growth stages. However, this information is lacking for hot pepper cultivars differing in growth habit and length of growing season under South African conditions. Detailed weather, soil and crop {{data were collected from}} three field trials conducted in the 2004 / 05 growing season. A canopy-cover based procedure was used to determine FAO Kcb values and growth periods for different growth stages. A simple soil water balance equation was used to estimate the ETc and Kc values of cultivar Long Slim. In addition, initial and maximum rooting depth and plant heights were determined. A database was generated containing Kcb and Kc values, growing period duration, rooting depth, and crop height for different hot pepper cultivars, from which the seasonal water requirements were determined. The length of different growth stages and the corresponding Kcb values were cultivar and growing condition dependent. The database can be used to estimate Kcb and Kc values for new hot pepper cultivars from canopy characteristics. The Soil Water Balance (SWB) model predicted the soil water deficits to field capacity and fractional canopy cover well, using the FAO crop factor approach...|$|E
40|$|Optical and {{microwave}} images have been combined for land cover monitoring in different agriculture scenarios, providing useful information on {{qualitative and quantitative}} land cover changes. This study aims to assess the complementarity and interoperability of optical (SPOT- 5 Take- 5) and synthetic aperture radar (SAR) (Sentinel- 1 A) data for crop parameter (basal crop coefficient (Kcb) values {{and the length of}} the crop’s development stages) retrieval and crop type classification, with a focus on crop water requirements, for an irrigation perimeter in Angola. SPOT- 5 Take- 5 images are used as a proxy of Sentinel- 2 data to evaluate the potential of their enhanced temporal resolution for agricultural applications. In situ data are also used to complement the Earth O=observation (EO) data. The Normalized Difference Vegetation Index (NDVI) and dual (VV + VH) polarization backscattering time series are used to compute the Kcb curve for four crop types (maize, soybean, bean and pasture) and to estimate the length of each phenological growth stage. The Kcb values are then used to compute the crop’s evapotranspiration and to subsequently estimate the <b>crop</b> <b>irrigation</b> <b>requirements</b> based on a soil water balance model. A significant R 2 correlation between NDVI and backscatter time series was observed for all crops, demonstrating that optical data can be replaced by microwave data in the presence of cloud cover. However, {{it was not possible to}} properly identify each stage of the crop cycle due to the lack of EO data for the complete growing season...|$|E
40|$|The {{effects of}} {{multiple}} irrigation regimes on {{the relationships among}} tree water status, vegetative growth and productivity within a super-high-density (SHD) “Arbequina” olive grove (1950 tree/ha) were studied for three seasons (2008 – 2010). Five different irrigation levels calculated as percentage of <b>crop</b> <b>irrigation</b> <b>requirement</b> using FAO procedures (Allen et al. in Crop evapotranspiration. Guidelines for computing <b>crop</b> water <b>requirements.</b> <b>Irrigation</b> and drainage paper 56. FAO, Rome, 1998) were imposed during the growing season. Periodically during the growing season, daytime stem water potential (ΨSTEM), inflorescences per branch, fruits per inflorescence and shoot absolute growth rate were measured. Crop yield, fruit average fresh weight and oil polyphenol content were measured after harvest. The midday ΨSTEM ranged from − 7 to − 1. 5 MPa and correlated well enough with yield efficiency, crop density and fruit fresh weight to demonstrate its utility as a precise method for determining water status in SHD olive orchards. The relationships between midday ΨSTEM and the horticultural parameters suggest maintaining ΨSTEM values between − 3. 5 and − 2. 5 MPa is optimal for moderate annual yields of good quality oil. Values below − 3. 5 MPa reduced current season productivity, while values over − 2. 5 MPa were less effective in increasing productivity, reduced oil quality and produced excessive crop set that strongly affected vegetative growth and fruit production the following season. On {{the basis of the}} result given here, irrigation scheduling in the new SHD orchards should be planned on a 2 -year basis and corrected annually based on crop load. Collectively, these results suggest that deficit irrigation management is a viable strategy for SHD olive orchards...|$|R
40|$|Water {{shortage}} is a {{limiting factor}} for agricultural production in China, {{and climate change}} will affect agricultural water use. Studying the {{effects of climate change}} on <b>crop</b> <b>irrigation</b> <b>requirement</b> (CIR) would help to tackle climate change, from both food security and sustainable water resource use perspectives. This paper applied SDSM (Statistical DownScaling Model) to simulate future meteorological parameters in the Hetao irrigation district (HID) in the time periods 2041 – 2070 and 2071 – 2099, and used the Penman–Monteith equation to calculate reference crop evapotranspiration (ET 0), which was further used to calculate crop evapotranspiration (ETc) and crop water requirement (CWR). CWR and predicted future precipitation were used to calculate CIR. The results show that the climate in the HID will become warmer and wetter; ET 0 would would increase by 4 % to 7 %; ETc and CWR have the same trend as ET 0, but different crops have different increase rates. CIR would increase because of the coefficient of the increase of CWR and the decrease of effective precipitation. Based on the current growing area, the CIR would increase by 198 × 106 to 242 × 106 m 3 by the year 2041 – 2070, and by 342 × 106 to 456 × 106 m 3 by the years 2071 – 2099 respectively. Future climate change will bring greater challenges to regional agricultural water use...|$|R
40|$|Introduction]: Machine {{vision is}} {{commonly}} reported {{for use in}} automated plant-based applications such as growth monitoring, stress detection, species identification and fruit harvesting. Geometric measurement of living plants using machine vision commonly requires depth perception, which typically entails establishing correspondence between multiple images. The complexity of such a task in an unstructured environment, such as foliage, often restricts automation of the process. Automated measurement of the geometry of young plants has been reported using laser range finding and image processing (Kaminuma et al. 2004) or multiple camera views (Lin et al. 2001). Noordam et al. (2005) compared automated methods of locating the main stem of a rose plant using methods including stereo imaging, structured lighting and X-ray imaging, while Ivanov et al. (1995) reported using stereovision and a manually-operated 2 D digitiser to model a maize canopy. However an automated vision system for measuring geometry of complex plants {{in the field is}} yet to be reported. Plant geometry is a significant factor for irrigation purposes in cotton because the distance between main stem nodes indicates water stress in a growing cotton plant. However, manual measurement of internode length is a tedious task for even a small number of plants. An automated method for large scale measurement of plant geometry in the field would provide information about <b>crop</b> <b>irrigation</b> <b>requirement</b> as well as spatial and temporal variability in crop stress and growth. This research aims to develop a real-time and automatic machine vision sensor for measuring structural parameters such as internode length for plants in a growing cotton crop...|$|R
40|$|Absent local weather stations, a gridded weather dataset {{can provide}} {{information}} useful for water management in irrigated areas including potential crop evapotranspiration calculations. In estimating <b>crop</b> <b>irrigation</b> <b>requirements</b> and surface evaporation in Utah, United States of America, methodology and software were developed using the ASCE Standardized Penman-Monteith Reference Evapotranspiration equation with input climate drivers from the North American Land Data Assimilation System (NLDAS) gridded weather forcing dataset and a digital elevation model. A simple procedure was devised to correct bias in NLDAS relative humidity and air temperature data based on comparison to weather data from ground stations. Potential evapotranspiration {{was calculated for}} 18 crops (including turfgrass), wetlands (large and narrow), and open water evaporation (deep and shallow) by multiplying crop coefficient curves to reference evapotranspiration with annual curve dates set by summation of Hargreaves evapotranspiration, cumulative growing degree days, or number of days. Net potential evapotranspiration was calculated by subtracting effective precipitation estimates from the Daymet gridded precipitation dataset. Analysis of {{the results showed that}} daily estimated potential crop evapotranspiration from the model compared well with estimates from electronic weather stations (1980 – 2014) and with independently calculated potential crop evapotranspiration in adjacent states. Designed for this study but open sourced for other applications, software entitled GridET encapsulated the GIS-based model that provided data download and management, calculation of reference and potential crop evapotranspiration, and viewing and analysis tools. Flexible features in GridET allows a user to specify grid resolution, evapotranspiration equations, cropping information, and additional datasets with the output being transferable to other GIS software...|$|E
40|$|Aim : Root {{hydraulic}} conductivity {{is one of}} the main factors that control water flow in the soil-plant system and ultimately affect <b>crop</b> <b>irrigation</b> <b>requirements.</b> This work sets out to estimate root water conductivity for three self-rooted or grafted table grape cultivars. Methods and results : We evaluated root water conductivity of the cultivars ‘Black Magic’, ‘Matilde’ and ‘Victoria’ grafted onto 1103 Paulsen rootstock or self-rooted. Measurements were performed on two-year-old table grapes grown in pots filled with pumice. Root water conductivity was determined by placing the pots in a pressure chamber and increasing pressures from 0. 05 to 0. 30 MPa, at intervals of 0. 05 MPa. Plant growth in terms of shoot and root dry matter was also evaluated, as well as leaf and root area. Conclusion : Root water conductivity differed according to cultivar and grafting. The ‘Victoria’ cultivar had higher root water conductivity than the other two, which differed little between them. The grafted plants showed higher root water conductivity than the self-rooted plants, except the plants of the cultivar ‘Matilde’, whose root water conductivity for the grafted and self-rooted plants was almost the same. It was also observed that the higher root water conductivity in relation to cultivar and grafting changed with increasing water flux and was constant for high water flux. Significance and impact of the study : Estimation of root {{hydraulic conductivity}} helps to determine the water consumption of the cultivars investigated, whether self-rooted or grafted, as well as the amount of irrigation water to apply to vineyard...|$|E
40|$|Chickpea (Cicer arietinum L.) {{is one of}} {{the most}} {{important}} pulse crops in the world, cultivated on a wide range of environments. In Mediterranean regions, it is traditionally grown as a spring sown rainfed crop, thus very dependent on rainfall. Supplemental irrigation can sometimes be a strategy to overcome the deficiency in rainfall, especially in very dry years. The objective of this study was to evaluate the effects on crop yield and water productivity (WP) with the use of supplemental irrigation in both dry and wet years. Field tests were carried out over two cropping seasons, in Southern Portugal, using three kabuli type and two desi type chickpea varieties, and four irrigation treatments, corresponding to full (100 %) <b>crop</b> <b>irrigation</b> <b>requirements</b> (IR), 50 % of IR, 25 % of IR and rainfed. Crop physiological parameters were measured during the cropping season in order to evaluate crop development. Results showed that all chickpea varieties had a positive response to supplemental irrigation, with a significant increase in the number of pods, seeds and the weight of the seeds, leading to higher grain and above ground biomass yields. The Elixir variety showed the best results in grain and biomass yield as well as harvest index and water productivity. In 2009, a dry year, the highest WP values were achieved at the 50 % IR treatment. In 2010, due to heavy rain, crop sowing had to be delayed. This shortened the crop growth cycle, affecting crop growth and yield, leading to lower yield values and higher WP values in the rainfed treatment. Field data was used in the SALTMED model to evaluate the capabilities of the model to simulate chickpea yield in these conditions. It was possible to verify that the calibration of the model using a single chickpea variety was enough to simulate the other varieties. The results of the calibration and validation of the model, recently published in Silva et al. (2012), showed that, providing enough and reliable data, the model can simulate very accurately grain yield and total dry mass of different chickpea varieties with supplemental irrigation, in both wet and dry year conditions...|$|E
40|$|With {{the aim of}} {{increasing}} peanut production in Australia, the Australian peanut industry has recently considered growing peanuts in rotation with maize at Katherine in the Northern Territory—a location with a semi-arid tropical climate and surplus irrigation capacity. We used the well-validated APSIM model to examine potential agronomic benefits and long-term risks of this strategy under the current and warmer climates of the new region. Yield of the two <b>crops,</b> <b>irrigation</b> <b>requirement,</b> total soil organic carbon (SOC), nitrogen (N) losses and greenhouse gas (GHG) emissions were simulated. Sixteen climate stressors were used; these were generated by using global climate models ECHAM 5, GFDL 2. 1, GFDL 2. 0 and MRIGCM 232 with a median sensitivity under two Special Report of Emissions Scenarios over the 2030 and 2050 timeframes plus current climate (baseline) for Katherine. Effects were compared at three levels of irrigation and three levels of N fertiliser applied to maize grown in rotations of wet-season peanut and dry-season maize (WPDM), and wet-season maize and dry-season peanut (WMDP). The climate stressors projected average temperature increases of 1 °C to 2. 8 °C in the dry (baseline 24. 4 °C) and wet (baseline 29. 5 °C) seasons for the 2030 and 2050 timeframes, respectively. Increased temperature caused a reduction in yield of both crops in both rotations. However, the overall yield advantage of WPDM increased from 41 % to up to 53 % compared with the industry-preferred sequence of WMDP under the worst climate projection. Increased temperature increased the <b>irrigation</b> <b>requirement</b> by up to 11 % in WPDM, but caused a smaller reduction in total SOC accumulation and smaller increases in N losses and GHG emission compared with WMDP. We conclude that although increased temperature will reduce productivity and total SOC accumulation, and increase N losses and GHG emissions in Katherine or similar northern Australian environments, the WPDM sequence should be preferable over the industry-preferred sequence because of its overall yield and sustainability advantages in warmer climates. Any limitations of irrigation resulting from climate change could, however, limit these advantages...|$|R
40|$|Permanent meadows {{located in}} the provinces of Parma and Reggio Emilia (Northern Italy) are {{extremely}} important {{for the production of}} Parmigiano – Reggiano cheese. Traditionally, this crop is irrigated by means of flood irrigation. In recent years, the reduced availability of irrigation water has meant that it has become necessary to optimise water use for <b>crops</b> with high <b>irrigation</b> <b>requirements</b> like permanent meadows. The purpose of this research was to evaluate the possibility of using the sprinkling method to optimise irrigation. The influence of nitrogen fertilisation has also been studied over a three year period, to verify the environmental effects of the different irrigation methods...|$|R