25|41|Public
2500|$|A <b>cylindrical</b> <b>joint</b> {{requires}} that a line, or axis, [...] in the moving body remain co-linear {{with a line}} in the fixed body. [...] It is a combination of a revolute joint and a sliding joint. [...] This joint has two degrees of freedom. The position of the moving body is defined by both the rotation about and slide along the axis.|$|E
5000|$|A <b>cylindrical</b> <b>joint</b> {{requires}} that {{a line in}} the moving body remain co-linear with {{a line in the}} fixed body. It is a combination of a revolute joint and a sliding joint. This joint has two degrees of freedom.|$|E
50|$|The {{basic body}} color is dark reddish-brown in males, while females are lighter yellow-brown. Moreover in the males the {{antennae}} terminate with a <b>cylindrical</b> <b>joint,</b> thicker and longer {{than all other}} segments, while the females antennae are terminated by a more clavate joint, {{not as long as}} the preceding ones.|$|E
40|$|A {{comprehensive}} computational methodology {{to study}} the coupling dynamics of a geared multibody system supported by ElastoHydroDynamic (EHD) lubricated <b>cylindrical</b> <b>joints</b> is proposed throughout this work. The geared multibody system is described by using the Absolute-Coordinate-Based (ACB) method that combines the Natural Coordinate Formulation (NCF) describing rigid bodies and the Absolute Nodal Coordinate Formulation (ANCF) characterizing the flexible bodies. Based on the finite-short bearing approach, the EHD lubrication condition for the <b>cylindrical</b> <b>joints</b> supporting the geared system is considered here. The lubrication forces developed at the <b>cylindrical</b> <b>joints</b> are obtained by solving the Reynolds’ equation via the finite difference method. For {{the evaluation of the}} normal contact forces of gear pair along the Line Of Action (LOA), the time-varying mesh stiffness, mesh damping and Static Transmission Error (STE) are utilized. The time-varying mesh stiffness is calculated by using the Chaari’s methodology. The forces of sliding friction along the Off-Line-Of-Action (OLOA) are computed by using the Coulomb friction models with a time-varying coefficient of friction under the EHD lubrication condition of gear teeth. Finally, two numerical examples of application are presented to demonstrate and validate the proposed methodology. National Natural Science Foundations of China under Grant 11290151, 11221202 and 11002022, Beijing Higher Education Young Elite Teacher Project under Grant YETP 1201...|$|R
40|$|WOSInternational audienceThis {{study is}} {{concerned}} with increasing the performance of adhesively bonded structures. Adhesively bonded joints offer many advantages, but stress singularities {{can contribute to the}} initiation and the propagation of crack in adhesive joints. Therefore, designing adhesively bonded joints which strongly limit the influence of edge effects can significantly increases the transmitted load by the assembly. <b>Cylindrical</b> <b>joints</b> are associated with high substrate strength in the radial direction, meaning that peel and cleavage forces have different effects compared to simple lap joints. But, for such assemblies, edge effects also exist. The aim of this paper is first to analyse stress concentrations in <b>cylindrical</b> <b>joints</b> in the case of axial loadings, starting from refined finite element computations under a linear elastic assumption. Thus as the stress state in the adhesive thickness can be complex associated to edge effects, simplified methods can lead to an overestimation of the transmitted load by the assembly as they generally are not able to represent effects of stress concentrations in the adhesive thickness. Secondly, geometries which strongly limit the influence of edge effects are proposed. An optimisation of the maximum transmitted load of <b>cylindrical</b> <b>joints</b> is proposed using a pressure-dependent elastic limit of the adhesive...|$|R
40|$|A {{computational}} {{methodology for}} dynamic analysis of multibody mechanical systems with imperfect <b>cylindrical</b> <b>joints</b> is presented and {{discussed in this}} work. Clearance and imperfections always exist in actual joints {{in order to ensure}} the correct relative motion between the connected bodies being the gap associated to them a result of machining tolerance, wear, and local deformations. Clearance at different joints is the source for impact forces, resulting in wear and tear of the joints, and consequently the degradation of the system performance. The model for <b>cylindrical</b> <b>joints,</b> presented in this work, is based on a thorough geometric description of contact conditions and on a continuous contact force model, which represents the impact forces. The existence of a clearance in a joint removes the four kinematic constraints associated with the ideal joint, and, hence, four extra degrees of freedom are introduced. When the journal reaches the bearing wall an impact takes place and contact forces control the dynamic of the joint...|$|R
5000|$|A <b>cylindrical</b> <b>joint</b> is a two-degrees-of-freedom {{kinematic}} pair used in mechanisms. [...] Cylindrical joints provide single-axis sliding function {{as well as}} a single axis rotation, providing a way for two rigid bodies to translate and rotate freely. This can be pictured by an unsecured axle mounted on a chassis, as it may freely rotate and translate.|$|E
5000|$|A <b>cylindrical</b> <b>joint</b> {{requires}} that a line, or axis, in the moving body remain co-linear {{with a line}} in the fixed body. It is a combination of a revolute joint and a sliding joint. This joint has two degrees of freedom. The position of the moving body is defined by both the rotation about and slide along the axis.|$|E
30|$|In this case, the ZMP of {{the robot}} is point D, {{which is the}} center point of the <b>cylindrical</b> <b>joint</b> on axis A 2 A 4.|$|E
50|$|The five-key flute is conical in bore, with a <b>cylindrical</b> head <b>joint</b> and a {{body that}} tapers to become narrowest furthest from the mouthpiece.|$|R
40|$|This paper {{presents}} a methodology for designing single-degree-of-freedom expandable “free-form ” structures composed of rigid blocks connected through simple <b>cylindrical</b> <b>joints.</b> The underlying {{idea is to}} interconnect two or more individually expandable plate structures. Using a two-dimensionally expanding sphere as a first example, the conditions that must be satisfied to preserve the internal mobility when connecting identical expandable plate structures are explained. These conditions are then extended to plate structures that are not identical and it is shown that {{a wide range of}} expandable free-form or “blob ” structures can be designed through this approach...|$|R
40|$|A <b>cylindrical</b> butt <b>joint</b> {{is widely}} {{utilised}} in bi-materials structures. Numerous examples {{can be found}} in micro-electronics, medicine and composite areas. Such bi-material structures normally have a very strong stress concentration at the interface, which often characterised by linear solutions of the theory of elasticity leading to the appearance of stress singularities. These singular solutions play a very important role in failure assessment of such joints by fracture mechanics approaches. In this paper we develop a compact solution for the generalized stress intensity factor at the interface of a <b>cylindrical</b> bi-material <b>joint</b> loaded by remote tensile loading parallel to the axis of symmetry. Based on a careful numerical modelling, a simple equation maintaining simplicity and accuracy over the wide range of problem’s variables is suggested. Furthermore, the existence of scale effect on the interface corner stress intensity factor for a <b>cylindrical</b> butt <b>joint</b> structure is also discussed in detail. D. Chang and S. Hardin...|$|R
40|$|Improvement of wear {{resistance}} and durability of machine elements with sliding friction pairs {{is the important}} tribological problems. The {{wear resistance}} has been determined with many configurative parameters, technological parameters, and operational parameters. In this study kinematics of <b>cylindrical</b> <b>joint</b> (CJ), whose motion is reciprocating and rotating, and influence of various parameters on wear resistance of friction pair was investigated...|$|E
40|$|The {{aim of this}} {{research}} is to analyze the behavior of the transition between static and dynamic friction coefficient in a <b>cylindrical</b> <b>joint,</b> in order to reach high reliability when loads are acting. The friction between cylindrical contact faces is analyzed both in dry and lubricated conditions up to the moment that the assembly starts moving while tilting the entire assembly. It means that it is analyzed a complex static friction developed along a chain and its sprocket...|$|E
40|$|Abstract. In {{order to}} {{increase}} the reliability and efficiency of the dynamic analysis of complex robot systems, the corresponding vector bond graph procedure is proposed. Based on the kinematic constraint condition, the vector bond graph procedure for modeling robot systems with <b>cylindrical</b> <b>joint</b> is described. For the difficulties brought by differential causality in the system automatic modeling and simulation, the effective decoupling method is proposed. As a result, the unified modeling and simulation for robot systems are realized, its validity {{is illustrated by the}} spatial robot system with five degrees of freedom...|$|E
40|$|Abstract In {{this study}} a total lagrangian 2 D finite element {{formulation}} {{is used to}} model plane frames developing large displacements and rotations considering sliding connections. This kind of connections is usually called prismatic and <b>cylindrical</b> <b>joints.</b> In order to be self-containing, {{the steps of the}} development of a frame finite element of any approximation order that considers the influence of shear strain by means of a generalized Reissner kinematics is presented. The adopted degrees of freedom are positions and rotations. Using positions as degrees of freedom simplifies the total lagrangian description and enables a comprehensive presentation of the proposed connections. Revolute connections are considered by direct degrees of freedom matching. Prismatic connections are modelled by the Lagrange multiplier technique that constrains positions and rotation of a sliding node to the varying position and rotation of a path element. <b>Cylindrical</b> <b>joints</b> are introduced in similar way by Lagrange multipliers releasing the sliding node rotation. The principle of stationary potential energy is used to write the non-linear equilibrium equation including the Lagrange multiplier influence. To solve the non-linear equation a Taylor expansion is carried out and the Newton-Raphson procedure is employed. The frame element is considered elastic, following the Saint-Venant-Kirchhoff constitutive model. Selected examples are used to validate the formulation and to show its possibilities of application...|$|R
40|$|The {{reconfigurable}} manipulator with lockable <b>cylindrical</b> <b>joints,</b> {{proposed by}} Aghili [1], is a reconfigurable mechanism that offers robust reconfigurability for serial manipulators while adding minimal {{weight to the}} system. Such a design can be very advantageous in space applications where both dexterity and minimum weight are necessary. Analysis of singularities and workspace is necessary for control process of this manipulator. In this thesis, first, we present {{the literature on the}} singularity analysis of parallel manipulators and propose a numerical method for singularity avoidance. Then, a literature on workspace determination methods is presented and another numerical method for workspace analysis is proposed. Both of these methods are applicable to a specific class of parallel manipulators including the reconfigurable manipulator with lockable <b>cylindrical</b> <b>joints.</b> The singularity avoidance technique is based on estimating the closest singular configuration in the workspace. The results of this method are compared to two other related methods and {{the advantages and disadvantages of}} the method are discussed. The second proposed method is towards the workspace determination of manipulators. Workspace determination can be used in the design stage or in control. Results for several case studies are illustrated and the advantages and limitations of this method are discussed. As a complementary contribution to this thesis, a Matlab package has been also developed as a modeling and simulation test-bed for this type of reconfigurable manipulators...|$|R
40|$|This paper {{presents}} a closed-form {{solution to the}} four-position synthesis problem by using a spatial slider, which is a spatial dyad of two perpendicularly intersected <b>cylindrical</b> <b>joints.</b> We utilize the dialytic elimination method to simplify the synthesis equations and to obtain a univariate ninth degree polynomial equation. Among the nine sets of solutions, {{two of them are}} infinite, and one is the displacement screw from the first position to the second position. Therefore, we have at most six real solutions {{that can be used to}} design spatial sliders for the four-position synthesis problem. A numerical example is provided in to demonstrate the validity of the solution procedure...|$|R
40|$|ABSTRACT: The {{increasing}} demand for light weight, high quality and more cost effective product has led adhesive bonding {{to emerge as}} one of the primary 60 ways of fastening structural members. East Adhesive joints have previously been designed empirically but now a day's data is available to design adhesive joints in West an optimum way. The fixing of cylindrical 40 components subjected to torque is a common requirement in industrial manufacture and {{there is a need to}} design and North optimize the adhesively bonded cylindrical 20 joint for maximum torque transmission capability facilitating keyless fastening. Some typical examples of adhesively bonded cylindrical joints are shaft to shaft, gear to shaft, rotor to shaft, fan to shaft, pulley to shaft etc. The present paper aims 0 at the development of analytical model for adhesively bonded <b>cylindrical</b> <b>joint</b> subjected to torsion loading for determination 1 st of Qtr the 2 nd joint Qtr profile 3 rd Qtr geometry 4 th Qtr for maximum torque transmission capability. The analysis is based on classical torsion theory and constitutive, equilibrium and compatibility equations of theory of elasticity are used to obtain stress field in the adhesive layer and optimize joint profile. The analytical model developed is used to determine profile of adherends of bonded <b>cylindrical</b> <b>joint</b> for maximum torque transmission capability and with minimum weight...|$|E
40|$|AbstractDefects in {{kinematic}} joints {{can sometimes}} highly influence the simulation {{response of the}} whole multibody system within which these joints are included. For instance, the clearance, the friction, the lubrication and the flexibility affect the transient behaviour, reduce the component life and produce noise and vibration for classical joints such as prismatics, cylindrics or universal joints. In this work, a new 3 D <b>cylindrical</b> <b>joint</b> model which accounts for the clearance, the misalignment and the friction is presented. This formulation {{has been used to}} represent the link between the planet gears and the planet carrier in an automotive differential model...|$|E
40|$|In this work, a {{methodology}} for dynamic analysis of rigid-flexible multibody systems with elastohydrodynamic (EHD) lubricated joints is presented. The EHD lubricated <b>cylindrical</b> <b>joint</b> is formulated by the Natural Coordinate Formulation (NCF) and the twenty-node hexahedral element of Absolute Nodal Coordinate Formulation (ANCF), being the lubricant pressure determined through {{the resolution of}} the Reynolds’ equation employing the finite difference method. The outcomes are validated with those obtained by using the commercial software ADINA. It is demonstrated that the bearing flexibility plays {{a significant role in the}} system responses, extends the lubricant distribution space and reduces the lubricant pressure...|$|E
40|$|Adhesively bonded shrink <b>cylindrical</b> <b>joints</b> show good fatigue {{strength}} behavior. They have various advantages compared to many conventional shaft hub joints. In drive systems {{they are often}} loaded by rotating bending and torsional load. The paper reports on results of tests with rotating bending and oscillating torsional load. The typical failure of the joint for high number of cycles is fretting fatigue. The SN curve of the bending stress (torsional stress as a parameter) decreases rapidly compared to the SN curve for pure torsional loading. The analysis of the available test data leads {{to the conclusion that}} the effective stress can be expressed as a linear relation of the bending and the torsional stress amplitude...|$|R
40|$|Frictionless sliding {{conditions}} {{between two}} bodies are usually defined using either {{the method of}} Lagrangian multipliers or by prescribing an artificial (penalty) stiffness which resists the penetration at the contact point. Both of these methods impose the condition that the contact force should be normal to the contact surface, with the Lagrangian multiplier or the penalty parameter serving {{as a measure of}} this force. In this work, an alternative approach is undertaken: the frictionless sliding condition is defined through a relationship between nodal parameters of the virtual displacements of a discretised principle of virtual work. This method, which does not involve additional force parameters or degrees of freedom, is known as the master–slave or the minimum-set method and is particularly convenient for displacement-based finite-element implementation. The method is analysed in detail in context of bilateral sliding constraints characteristic of prismatic and <b>cylindrical</b> <b>joints</b> in flexible beam assemblies undergoing large overall motion. Two numerical examples are presented and assessed against the results in the literature. Peer ReviewedPostprint (author's final draft...|$|R
40|$|Abstract This paper {{presents}} {{a family of}} two-dimensional expandable structures formed by flat plates connected by <b>cylindrical</b> (scissor) <b>joints.</b> These structures are kinematically equivalent to previously known expandable bar structures. Special shapes of the plates are determined for which the plates do not overlap or interfere during {{the expansion of the}} structure, and for which the structure forms a gap-free disk in the closed configuration and an annulus in the open configuration...|$|R
40|$|A new {{methodology}} for dynamic analysis of rigid-flexible multibody systems with elastohydrodynamic (EHD) lubricated cylindrical joints is proposed. The EHD lubricated <b>cylindrical</b> <b>joint</b> is formulated by the Natural Coordinate Formulation (NCF) and the twenty- node hexahedral element of Absolute Nodal Coordinate Formulation (ANCF), being the lubricant pressure determined through {{the resolution of}} the Reynolds’ equation employing the finite difference method. The main outcomes are validated with those obtained by using the commercial software ADINA. It is shown that the bearing flexibility plays {{a significant role in the}} system responses, extends the lubricant distribution space and, consequently, reduces the lubricant pressure. Fundação para a Ciência e a Tecnologia (FCT...|$|E
40|$|A new {{approach}} to model and analyze flexible spatial multibody systems with clearance cylindrical joints is presented throughout this work. The flexible parts are modeled by using the absolute nodal coordinate formulation (ANCF) based elements, while the rigid parts are described by employing the natural coordinate formulation (NCF), {{which can lead to}} a constant system mass matrix for the final derived system equations of motion. In a simple way, a <b>cylindrical</b> <b>joint</b> with clearance is composed by two main elements, that is, a journal inside a bearing. Additionally, a lubricant fluid can exist between these two mechanical elements to reduce the friction, wear and increase the system’s life. For the case in which the <b>cylindrical</b> <b>joint</b> with clearance is modeled as a dry contact pair, a technique using a continuous approach for the evaluation of the contact force is applied, where the energy dissipation in form of hysteresis damping is considered. Furthermore, the frictional forces developed in those contacts are evaluated using a modified Coulomb’s friction law. For the lubricated case, the hydrodynamic theory for dynamically loaded journal-bearings is used to compute the forces generated by lubrication actions. The lubricated model is based on the Reynolds’ equation developed for the case of journal-bearings in which the length-to-diameter ratios are up to 1. With this approach, the misalignment of the journal inside the bearing can be studied. Finally, two demonstrative examples of application are used to provide the results that support the discussion and show the validity of the proposed methodologies. Fundação para a Ciência e a Tecnologia (FCT...|$|E
30|$|Discussion: In general, a {{kinematic}} joint possesses {{more than}} one constraint reaction, for example, there exist 5, 4, 4 and 3 constraint reactions for an R joint, universal joint (U), <b>cylindrical</b> <b>joint</b> (C), and spherical joint (S), respectively. If we adopt traditional methods to build the force and moment equilibrium equations of all movable bodies and complementary equations, the rank of the coefficient matrix of those equations will be very large. This method, {{which is based on}} resultant constraint wrenches, can avoid the high-rank matrix, reduce a certain number of unknowns, and ensure that the number of simultaneous equilibrium equations is not more than six each time. However, it is only suitable for solving the driving forces/torques and constraint forces/moments of passive overconstrained PMs with collinear constraint forces or coaxial constraint moments.|$|E
40|$|A {{nonlinear}} Lagrangian formulation for {{the spatial}} kinematic and dynamic analysis of open chain deformable links consisting of <b>cylindrical</b> <b>joints</b> that connect pairs of flexible links is developed. The special cases of revolute or prismatic joint {{can also be}} obtained from the kinematic equations. The kinematic equations are described using a 4 x 4 matrix method. The configuration of each deformable link in the open loop kinematic chain is identified using a coupled set of relative joint variables, constant geometric parameters, and elastic coordinates. The elastic coordinates define the link deformation with respect to a selected joint coordinate system that is consistent with the kinematic constraints on the boundary of the deformable link. These coordinates can be introduced using approximation techniques such as Rayleigh-Ritz method, finite element technique or any other desired approach. The large relative motion between two neighboring links are defined by a set of joint coordinates which describes the large relative translational and rotational motion between two neighboring joint coordinate systems. The origin of these coordinate systems are rigidly attached to the neighboring links at the joint definition points along the axis of motion...|$|R
5000|$|The {{simple system}} flute had a <b>cylindrical</b> head <b>joint</b> and a reverse tapered body. The six main tone holes were heavily {{undercut}} to produce even intonation and registration while providing even finger spacing. French simple system flutes (or [...] "five-key flutes") from this era typically had five keys that enabled the flute {{to play in}} any key. English and German models were typically designed with eight keys: the five of the five-key flute, plus an alternate F key running along the instrument, and two keys on the foot joint to extend the lower register down to middle C.|$|R
40|$|Artículos en revistasIn this work, we analyse <b>cylindrical</b> <b>joints</b> bonded with {{anaerobic}} adhesives, {{applying the}} principles {{found in a}} paper of Nemes et al. [Int J Adhes Adhes 2006; 26 (6) : 474]. Nemes paper gives an analytical solution for the different stresses that appear on the three elements of the cylindrical assembly (two tubes and the adhesive) over the whole joining surface. A detailed study of this paper allowed us {{to develop a new}} mathematical model to be applied to a pin-and-collar specimen, in particular to the standard system, which appears in ISO 10123. From the mechanical and geometrical properties of the components and the axial loading applied on the system, it has been possible to obtain the intensity and distribution of stresses in the assembly graphically, using the mathematical program MathCAD. Consequently, it is possible to calculate the so far unknown value of maximum shear stress. So knowing the shear stress, the model allows (i) to predict the distribution of stresses in the adhesive bond and (ii) to carry out a parametric study of the bond; that is to say, it allows to evaluate the influence of geometrical parameters and the influence of the selected adhesive in the stress distribution within the bond. It is, therefore, a methodology, which will make possible to calculate, quickly and simply, the distribution of stresses and the maximum shear strength in the adhesive. Moreover, it makes unnecessary to carry out numerous mechanical tests. info:eu-repo/semantics/publishedVersio...|$|R
40|$|Grid shells are {{efficient}} structural systems covering large {{open spaces}} with relatively {{small amount of}} materials. Also, post forming techniques allow realization of geometrically complex (free-form) shapes by means of standard connection systems. However, due to complexity of the analysis–design process, they are rarely utilized in construction design. In this paper, a ‘facilitating’ numerical framework is introduced in which, for a given continuous reference shape, a geometrically similar discrete model is found by implementation of a six degree of freedom formulation of the Dynamic Relaxation method, to handle members bending and torsional stiffness. A grid cutting pattern algorithm is introduced, as well as methods to numerically simulate the double-layer construction technique and a novel (single-node) <b>cylindrical</b> <b>joint</b> model. The methods are extensively tested and validated {{on a range of}} structures, from ‘simple’ single-rod cases to more complex, actively bent, grid shell frameworks...|$|E
40|$|A {{prosthetic}} hand structure (100) comprises {{at least}} one mechanical finger (110 a-e) comprising in turn a metacarpal support (111) and a proximal stiff link (112) connected to the metacarpal, support (111) by a proximal <b>cylindrical</b> <b>joint</b> (113). The proximal stiff link (112) is arranged {{to carry out a}} rotation of predetermined amplitude (φ) with respect to the metacarpal support (111) about an axis (113 ') of the proximal <b>cylindrical</b> <b>joint</b> (113). The mechanical finger (110 a-e) also comprises a transmission member (116, 117) connected to the proximal stiff link (112). The transmission member (116, 117) is adapted to actuate the proximal stiff link (112) for causing the above described rotation of predetermined amplitude (φ). In particular, the transmission member (116, 117) comprises a worm screw (116) integral to the proximal stiff link (112) and is arranged for carrying out a rotation about a longitudinal axis (116 ') of the worm screw (116). The transmission member (116, 117) comprises also a flexible rack (117) having a first end portion (117 a), pivotally connected to the metacarpal support (111), and a second end portion (117 b) arranged to engage with the threaded profile of the worm screw (116) at an engagement zone (P) of the flexible rack (117). It is provided an actuator (118) mounted to the mechanical finger (110 a- 110 e) and to actuate the worm screw (116), causing it to rotate about its rotation axis (116 '), in such a way that, when the actuator (118) moves the worm screw (116), there is a moving away/approaching movement of the engagement zone (P) away from/towards the first end (117 a), with subsequent rotation of predetermined amplitude (φ), in a direction of rotation, or in the opposite direction, of the proximal stiff link (112) about its axis (113 '), corresponding to the extension/flexion movement of the mechanical finger (110 a- 110 e) ...|$|E